##TITLE=13c deptQgpsp TBI ns 4k
##JCAMPDX= 6.0         $$ Bruker NMR JCAMP-DX V2.0
##DATA TYPE= NMR SPECTRUM
##DATA CLASS= NTUPLES
##ORIGIN= Bruker BioSpin GmbH
##OWNER= ocmess
##LONG DATE= 2009/06/26 05:37:37+0000
$$ 1.90.2.4 TopSpin 3.6.0
$$ 2020-10-15 20:48:30.291 +0200  nes@nmr-nesnote2
$$ Compression mode = diff/dup
##.OBSERVE FREQUENCY= 150.93550309
##.OBSERVE NUCLEUS= ^13C
##.ACQUISITION MODE= SIMULTANEOUS (DQD)
##.ACQUISITION SCHEME= undefined
##.AVERAGES= 744
##.DIGITISER RES= 21
##SPECTROMETER/DATA SYSTEM= spect
##.PULSE SEQUENCE= deptqgpsp
##.SOLVENT NAME= DMSO
##.SHIFT REFERENCE= INTERNAL, DMSO, 1, 219.4662
##AUDIT TRAIL= $$ (NUMBER, WHEN, WHO, WHERE, PROCESS, VERSION, WHAT)
$$ ##TITLE= Audit trail, TopSpin 3.6.0
$$ ##JCAMPDX= 5.01
$$ ##ORIGIN= Bruker BioSpin GmbH
$$ ##OWNER= nes
$$ $$ C:\Bruker\TopSpin3.6.0\data\luc\nmr/Displayer_57946-61-9_light/6/pdata/1/auditp.txt
$$ ##AUDIT TRAIL=  $$ (NUMBER, WHEN, WHO, WHERE, PROCESS, VERSION, WHAT)
(   1,<2009-06-26 07:39:59.074 +0200>,<ocmess>,<av600>,<go>,<TOPSPIN 2.1>,
      <created by zg
	started at 2009-06-26 06:16:00.205 +0200,
	POWCHK disabled, PULCHK disabled,
       terminated by command 'halt'
       configuration hash MD5:
       4D EB 05 20 4E C2 27 D5 8C 2B 1E 6A A2 4F 3F 0E
       data hash MD5: 256K
       1C BC AB 00 27 96 03 01 F9 91 82 6F CE 42 C7 16>)
(   2,<2020-10-15 20:44:38.902 +0200>,<nes>,<nmr-nesnote2>,<proc1d>,<TopSpin 3.6.0>,
      <Start of raw data processing
       efp LB = 3 FT_mod = 6 PKNL = 1 PHC0 = 443.9576 PHC1 = -203.3973 SI = 128K 
       data hash MD5: 128K
       40 C9 F8 9E D8 AF AD 1E 48 E0 32 14 89 DB 8F AB>)
$$ ##END=
$$ 
$$ $$ hash MD5
$$ $$ 7A 0E 98 D4 5E 92 5A C9 CF CB 35 07 E2 90 48 03
##$RELAX= 
##$BRUKER FILE EXP=cpdprg2
$$ ;$OWNER=Bruker
$$ 1 pcpd*3:180
$$   pcpd*4:0
$$   pcpd*2:180
$$   pcpd*3:0
$$   pcpd  :180
$$   pcpd*2:0
$$   pcpd*4:180
$$   pcpd*2:0
$$   pcpd*3:180
$$ 2 pcpd*3:0
$$   pcpd*4:180
$$   pcpd*2:0
$$   pcpd*3:180
$$   pcpd  :0
$$   pcpd*2:180
$$   pcpd*4:0
$$   pcpd*2:180
$$   pcpd*3:0
$$   lo to 2 times 2
$$ 3 pcpd*3:180
$$   pcpd*4:0
$$   pcpd*2:180
$$   pcpd*3:0
$$   pcpd  :180
$$   pcpd*2:0
$$   pcpd*4:180
$$   pcpd*2:0
$$   pcpd*3:180
$$   jump to 1
##$RELAX= 
##$BRUKER FILE EXP=format.temp
$$ EDIT_PAR COMMAND FILE
$$ 
$$ DI_MODE         LONG
$$ ED_ENTRY        ACQU
$$ ORDER           FILE
$$ 
$$ 
$$ HEADER		"F2 - Acquisition Parameters"
$$ T_NAME		Date_
$$ 		TYPE	R64
$$ 		CLASS	ACQU
$$ 		SUBRANGE 0.0 50000000
$$ 		REL	"Date_=itodate(DATE)"
$$ 		INV_REL	"DATE=datetoi(Date_,DATE)"
$$ 		FORMAT	"%14.0f"
$$ 		TEXT	" "
$$ END
$$ T_NAME		Time
$$ 		TYPE	R32
$$ 		CLASS	ACQU
$$ 		SUBRANGE 0.0 1000000
$$ 		REL	"Time=itotime(DATE)"
$$ 		INV_REL	"DATE=timetoi(Time,DATE)"
$$ 		FORMAT	"%14.2f"
$$ 		TEXT	" "
$$ END
$$ NAME		INSTRUM
$$ 		TEXT	" "
$$ END
$$ NAME		PROBHD
$$ 		FORMAT	"%14.14s"
$$ 		TEXT	" "
$$ END
$$ NAME		PULPROG
$$ 		TEXT	" "
$$ END
$$ NAME		TD
$$ 		TEXT	" "
$$ END
$$ NAME		SOLVENT
$$ 		TEXT	" "
$$ END
$$ NAME		NS
$$ 		TEXT	" "
$$ END
$$ NAME		DS
$$ 		TEXT	" "
$$ END
$$ T_NAME		SWH
$$ 		TYPE	R32
$$ 		CLASS	ACQU
$$ 		SUBRANGE 0.0 1e8
$$ 		REL	"SWH=SW*SFO1"
$$ 		INV_REL "SW=SWH/SFO1"
$$ 		UNIT	"Hz"
$$ 		FORMAT	"%14.3f Hz"
$$ 		TEXT	" "
$$ END
$$ T_NAME          FIDRES
$$                 TYPE    R32
$$                 CLASS   ACQU
$$                 SUBRANGE 0.0 100000
$$                 REL     "FIDRES=SW*SFO1/TD"
$$                 INV_REL "TD = nextpow(SW*SFO1/FIDRES)"
$$ 		UNIT	"Hz"
$$ 		FORMAT	"%14.6f Hz"
$$ 		TEXT	" "
$$ END
$$ T_NAME          AQ
$$ 		TYPE	R32
$$ 		CLASS	ACQU
$$ 		SUBRANGE 0.0 1000
$$ 		REL	"AQ=aqcalc(SW,SFO1,TD,DIGTYP)"
$$ 		INV_REL	"TD=tdcalc(SW,SFO1,1.0e6*AQ,DIGTYP)"
$$ 		UNIT	"sec"
$$ 		FORMAT	"%14.7f sec"
$$ 		TEXT	" "
$$ END
$$ NAME		RG
$$ 		TEXT	" "
$$ END
$$ T_NAME          DW
$$ 		TYPE	R32
$$ 		CLASS	ACQU
$$ 		SUBRANGE 0.0 1000000
$$ 		REL	"DW=1/(2*SW*SFO1)"
$$ 		INV_REL	"SW=1000000/(2*(0.005+DW)*SFO1)"
$$ 		UNIT	"usec"
$$ 		FORMAT	"%14.3lf usec"
$$ 		TEXT	" "
$$ END
$$ NAME		DE
$$ 		FORMAT	"%14.2f usec"
$$ 		TEXT	" "
$$ END
$$ NAME		TE
$$ 		FORMAT	"%14.1f K"
$$ 		TEXT	" "
$$ END
$$ T_NAME		CNST2
$$ 		TYPE	R32
$$ 		CLASS	ACQU
$$ 		SUBRANGE -1e38 1e38
$$ 		REL	"CNST2=CNST[2]"
$$ 		INV_REL	"CNST[2]=CNST2"
$$ 		FORMAT	"%14.7f"
$$ 		TEXT	" "
$$ END
$$ T_NAME		CNST12
$$ 		TYPE	R32
$$ 		CLASS	ACQU
$$ 		SUBRANGE -1e38 1e38
$$ 		REL	"CNST12=CNST[12]"
$$ 		INV_REL	"CNST[12]=CNST12"
$$ 		FORMAT	"%14.7f"
$$ 		TEXT	" "
$$ END
$$ T_NAME		D1
$$ 		TYPE	R32
$$ 		CLASS	ACQU
$$ 		SUBRANGE 0.0 1e38
$$ 		REL	"D1=D[1]"
$$ 		INV_REL	"D[1]=D1"
$$ 		UNIT	"sec"
$$ 		FORMAT	"%14.8f sec"
$$ 		TEXT	" "
$$ END
$$ T_NAME		D2
$$ 		TYPE	R32
$$ 		CLASS	ACQU
$$ 		SUBRANGE 0.0 1e38
$$ 		REL	"D2=D[2]"
$$ 		INV_REL	"D[2]=D2"
$$ 		UNIT	"sec"
$$ 		FORMAT	"%14.8f sec"
$$ 		TEXT	" "
$$ END
$$ T_NAME		D12
$$ 		TYPE	R32
$$ 		CLASS	ACQU
$$ 		SUBRANGE 0.0 1e38
$$ 		REL	"D12=D[12]"
$$ 		INV_REL	"D[12]=D12"
$$ 		UNIT	"sec"
$$ 		FORMAT	"%14.8f sec"
$$ 		TEXT	" "
$$ END
$$ T_NAME		D16
$$ 		TYPE	R32
$$ 		CLASS	ACQU
$$ 		SUBRANGE 0.0 1e38
$$ 		REL	"D16=D[16]"
$$ 		INV_REL	"D[16]=D16"
$$ 		UNIT	"sec"
$$ 		FORMAT	"%14.8f sec"
$$ 		TEXT	" "
$$ END
$$ NAME		TD0
$$ 		TEXT	" "
$$ END
$$ HEADER		"======== CHANNEL f1 ========"
$$ NAME		NUC1
$$ 		NONEDIT
$$ 		TEXT	" "
$$ END
$$ T_NAME		P1
$$ 		TYPE	R32
$$ 		CLASS	ACQU
$$ 		SUBRANGE 0.0 1.0e10
$$ 		REL	"P1=P[1]"
$$ 		INV_REL	"P[1]=P1"
$$ 		UNIT	"usec"
$$ 		FORMAT	"%14.2f usec"
$$ 		TEXT	" "
$$ END
$$ T_NAME		P12
$$ 		TYPE	R32
$$ 		CLASS	ACQU
$$ 		SUBRANGE 0.0 1.0e10
$$ 		REL	"P12=P[12]"
$$ 		INV_REL	"P[12]=P12"
$$ 		UNIT	"usec"
$$ 		FORMAT	"%14.2f usec"
$$ 		TEXT	" "
$$ END
$$ T_NAME		PL0
$$ 		TYPE	R32
$$ 		CLASS	ACQU
$$ 		SUBRANGE -6.0 1e38
$$ 		REL	"PL0=PL[0]"
$$ 		INV_REL	"PL[0]=PL0"
$$ 		UNIT	"dB"
$$ 		FORMAT	"%14.2f dB"
$$ 		TEXT	" "
$$ END
$$ T_NAME		PL1
$$ 		TYPE	R32
$$ 		CLASS	ACQU
$$ 		SUBRANGE -6.0 1e38
$$ 		REL	"PL1=PL[1]"
$$ 		INV_REL	"PL[1]=PL1"
$$ 		UNIT	"dB"
$$ 		FORMAT	"%14.2f dB"
$$ 		TEXT	" "
$$ END
$$ T_NAME		PL0W
$$ 		TYPE	R32
$$ 		CLASS	ACQU
$$ 		SUBRANGE -6.0 1e38
$$ 		REL	"PL0W=329*pow(10.0,(-6-PL[0])/10.0)"
$$ 		INV_REL	"PL[0]=-6-4.3425*log(PL0W/329)"
$$ 		UNIT	"no"
$$ 		FORMAT	"%14.8f W"
$$ 		TEXT	" "
$$ END
$$ T_NAME		PL1W
$$ 		TYPE	R32
$$ 		CLASS	ACQU
$$ 		SUBRANGE -6.0 1e38
$$ 		REL	"PL1W=329*pow(10.0,(-6-PL[1])/10.0)"
$$ 		INV_REL	"PL[1]=-6-4.3425*log(PL1W/329)"
$$ 		UNIT	"no"
$$ 		FORMAT	"%14.8f W"
$$ 		TEXT	" "
$$ END
$$ NAME		SFO1
$$ 		FORMAT	"%14.7f MHz"
$$ 		TEXT	" "
$$ END
$$ T_NAME		SP2
$$ 		TYPE	R32
$$ 		CLASS	ACQU
$$ 		SUBRANGE -6.0 120
$$ 		REL	"SP2=SP[2]"
$$ 		INV_REL	"SP[2]=SP2"
$$ 		UNIT	"dB"
$$ 		FORMAT	"%14.2f dB"
$$ 		TEXT	" "
$$ END
$$ NAME		SPNAM2
$$ 		TEXT	" "
$$ END
$$ T_NAME		SPOAL2
$$ 		TYPE	R32
$$ 		CLASS	ACQU
$$ 		SUBRANGE -1.0 1.0
$$ 		REL	"SPOAL2=SPOAL[2]"
$$ 		INV_REL	"SPOAL[2]=SPOAL2"
$$ 		FORMAT	"%14.3f"
$$ 		TEXT	" "
$$ END
$$ T_NAME		SPOFFS2
$$ 		TYPE	R32
$$ 		CLASS	ACQU
$$ 		SUBRANGE -1e38 1e38
$$ 		REL	"SPOFFS2=SPOFFS[2]"
$$ 		INV_REL	"SPOFFS[0]=SPOFFS0"
$$ 		UNIT	"Hz"
$$ 		FORMAT	"%14.2f Hz"
$$ 		TEXT	" "
$$ END
$$ HEADER		"======== CHANNEL f2 ========"
$$ NAME		CPDPRG2
$$ 		TEXT	" "
$$ END
$$ NAME		NUC2
$$ 		NONEDIT
$$ 		TEXT	" "
$$ END
$$ T_NAME		P0
$$ 		TYPE	R32
$$ 		CLASS	ACQU
$$ 		SUBRANGE 0.0 1.0e10
$$ 		REL	"P0=P[0]"
$$ 		INV_REL	"P[0]=P0"
$$ 		UNIT	"usec"
$$ 		FORMAT	"%14.2f usec"
$$ 		TEXT	" "
$$ END
$$ T_NAME		P3
$$ 		TYPE	R32
$$ 		CLASS	ACQU
$$ 		SUBRANGE 0.0 1.0e10
$$ 		REL	"P3=P[3]"
$$ 		INV_REL	"P[3]=P3"
$$ 		UNIT	"usec"
$$ 		FORMAT	"%14.2f usec"
$$ 		TEXT	" "
$$ END
$$ T_NAME		P4
$$ 		TYPE	R32
$$ 		CLASS	ACQU
$$ 		SUBRANGE 0.0 1.0e10
$$ 		REL	"P4=P[4]"
$$ 		INV_REL	"P[4]=P4"
$$ 		UNIT	"usec"
$$ 		FORMAT	"%14.2f usec"
$$ 		TEXT	" "
$$ END
$$ T_NAME		PCPD2
$$ 		TYPE	R32
$$ 		CLASS	ACQU
$$ 		SUBRANGE 0 1e38
$$ 		REL	"PCPD2=PCPD[2]"
$$ 		INV_REL	"PCPD[2]=PCPD2"
$$ 		UNIT	"usec"
$$ 		FORMAT	"%14.2f usec"
$$ 		TEXT	" "
$$ END
$$ T_NAME		PL2
$$ 		TYPE	R32
$$ 		CLASS	ACQU
$$ 		SUBRANGE -6.0 1e38
$$ 		REL	"PL2=PL[2]"
$$ 		INV_REL	"PL[2]=PL2"
$$ 		UNIT	"dB"
$$ 		FORMAT	"%14.2f dB"
$$ 		TEXT	" "
$$ END
$$ T_NAME		PL12
$$ 		TYPE	R32
$$ 		CLASS	ACQU
$$ 		SUBRANGE -6.0 1e38
$$ 		REL	"PL12=PL[12]"
$$ 		INV_REL	"PL[12]=PL12"
$$ 		UNIT	"dB"
$$ 		FORMAT	"%14.2f dB"
$$ 		TEXT	" "
$$ END
$$ T_NAME		PL2W
$$ 		TYPE	R32
$$ 		CLASS	ACQU
$$ 		SUBRANGE -6.0 1e38
$$ 		REL	"PL2W=47*pow(10.0,(-6-PL[2])/10.0)"
$$ 		INV_REL	"PL[2]=-6-4.3425*log(PL2W/47)"
$$ 		UNIT	"no"
$$ 		FORMAT	"%14.8f W"
$$ 		TEXT	" "
$$ END
$$ T_NAME		PL12W
$$ 		TYPE	R32
$$ 		CLASS	ACQU
$$ 		SUBRANGE -6.0 1e38
$$ 		REL	"PL12W=47*pow(10.0,(-6-PL[12])/10.0)"
$$ 		INV_REL	"PL[12]=-6-4.3425*log(PL12W/47)"
$$ 		UNIT	"no"
$$ 		FORMAT	"%14.8f W"
$$ 		TEXT	" "
$$ END
$$ NAME		SFO2
$$ 		FORMAT	"%14.7f MHz"
$$ 		TEXT	" "
$$ END
$$ HEADER		"====== GRADIENT CHANNEL ====="
$$ NAME		GPNAM1
$$ 		TEXT	" "
$$ END
$$ NAME		GPNAM2
$$ 		TEXT	" "
$$ END
$$ NAME		GPNAM3
$$ 		TEXT	" "
$$ END
$$ T_NAME		GPZ1
$$ 		TYPE	R32
$$ 		CLASS	ACQU
$$ 		SUBRANGE -100.0 100.0
$$ 		REL	"GPZ1=GPZ[1]"
$$ 		INV_REL	"GPZ[1]=GPZ1"
$$ 		UNIT	"%"
$$ 		FORMAT	"%14.2f %"
$$ 		TEXT	" "
$$ END
$$ T_NAME		GPZ2
$$ 		TYPE	R32
$$ 		CLASS	ACQU
$$ 		SUBRANGE -100.0 100.0
$$ 		REL	"GPZ2=GPZ[2]"
$$ 		INV_REL	"GPZ[2]=GPZ2"
$$ 		UNIT	"%"
$$ 		FORMAT	"%14.2f %"
$$ 		TEXT	" "
$$ END
$$ T_NAME		GPZ3
$$ 		TYPE	R32
$$ 		CLASS	ACQU
$$ 		SUBRANGE -100.0 100.0
$$ 		REL	"GPZ3=GPZ[3]"
$$ 		INV_REL	"GPZ[3]=GPZ3"
$$ 		UNIT	"%"
$$ 		FORMAT	"%14.2f %"
$$ 		TEXT	" "
$$ END
$$ T_NAME		P16
$$ 		TYPE	R32
$$ 		CLASS	ACQU
$$ 		SUBRANGE 0.0 1.0e10
$$ 		REL	"P16=P[16]"
$$ 		INV_REL	"P[16]=P16"
$$ 		UNIT	"usec"
$$ 		FORMAT	"%14.2f usec"
$$ 		TEXT	" "
$$ END
##$RELAX= 
##$BRUKER FILE EXP=scon2
$$ ##TITLE= Parameter file, TOPSPIN		Version 2.1
$$ ##JCAMPDX= 5.0
$$ ##DATATYPE= Parameter Values
$$ ##NPOINTS= 2	$$ modification sequence number
$$ ##ORIGIN= Bruker BioSpin GmbH
$$ ##OWNER= ocmess
$$ $$ 2009-06-26 06:16:00.079 +0200  ocmess@av600
$$ $$ /opt/topspin/data/ocmess/nmr/nesEX69/6/scon2
$$ $$ process /opt/topspin2.1/prog/mod/go
$$ ##$BLKTR= (0..15)
3 3 3 3 3 3 3 3 3 3 3 3 3 3 3 3
$$ ##$DE1= 4.5
$$ ##$DEADC= 0.5
$$ ##$DEPA= 4.5
$$ ##$DERX= 1.5
$$ ##$FILCOR= 0.7
$$ ##END=
##$RELAX= 
##$BRUKER FILE EXP=spnam2
$$ ##TITLE= sm. comp. Chirp: 60kHz, 2ms
$$ ##JCAMP-DX= 5.00 Bruker JCAMP library
$$ ##DATA TYPE= Shape Data
$$ ##ORIGIN= Bruker BioSpin GmbH
$$ ##OWNER= <demo>
$$ ##DATE= 2005/09/22
$$ ##TIME= 18:40:13
$$ ##$SHAPE_PARAMETERS= Type: CompositeSmoothedChirp Add Const. Phase -84.0
$$ ##MINX= 0.000000E00
$$ ##MAXX= 1.000000E02
$$ ##MINY= 1.110750E-01
$$ ##MAXY= 3.599617E02
$$ ##$SHAPE_EXMODE= CompositeAdiabatic
$$ ##$SHAPE_TOTROT= 1.800000E02
$$ ##$SHAPE_TYPE= Refocussing
$$ ##$SHAPE_USER_DEF= 
$$ ##$SHAPE_REPHFAC= 
$$ ##$SHAPE_BWFAC= 8.099400E01
$$ ##$SHAPE_BWFAC50= 
$$ ##$SHAPE_INTEGFAC= 2.558317E-02
$$ ##$SHAPE_MODE= 0
$$ ##NPOINTS= 4000
$$ ##XYPOINTS= (XY..XY)
$$ 0.000000E00, 1.833013E02
$$ 7.893367E-01, 1.779122E02
$$ 1.578624E00, 1.725338E02
$$ 2.367813E00, 1.671662E02
$$ 3.156855E00, 1.618093E02
$$ 3.945700E00, 1.564633E02
$$ 4.734299E00, 1.511282E02
$$ 5.522603E00, 1.458037E02
$$ 6.310563E00, 1.404901E02
$$ 7.098130E00, 1.351873E02
$$ 7.885255E00, 1.298954E02
$$ 8.671888E00, 1.246142E02
$$ 9.457981E00, 1.193437E02
$$ 1.024348E01, 1.140841E02
$$ 1.102835E01, 1.088353E02
$$ 1.181253E01, 1.035973E02
$$ 1.259597E01, 9.837015E01
$$ 1.337863E01, 9.315375E01
$$ 1.416045E01, 8.794815E01
$$ 1.494139E01, 8.275335E01
$$ 1.572140E01, 7.756935E01
$$ 1.650044E01, 7.239615E01
$$ 1.727844E01, 6.723375E01
$$ 1.805537E01, 6.208215E01
$$ 1.883117E01, 5.694135E01
$$ 1.960579E01, 5.181135E01
$$ 2.037920E01, 4.669215E01
$$ 2.115134E01, 4.158375E01
$$ 2.192216E01, 3.648615E01
$$ 2.269161E01, 3.139935E01
$$ 2.345965E01, 2.632335E01
$$ 2.422623E01, 2.125815E01
$$ 2.499130E01, 1.620375E01
$$ 2.575481E01, 1.116015E01
$$ 2.651671E01, 6.127350E00
$$ 2.727697E01, 1.105350E00
$$ 2.803552E01, 3.560941E02
$$ 2.879233E01, 3.510937E02
$$ 2.954734E01, 3.461042E02
$$ 3.030052E01, 3.411253E02
$$ 3.105180E01, 3.361573E02
$$ 3.180115E01, 3.312001E02
$$ 3.254852E01, 3.262537E02
$$ 3.329386E01, 3.213182E02
$$ 3.403713E01, 3.163933E02
$$ 3.477828E01, 3.114793E02
$$ 3.551726E01, 3.065761E02
$$ 3.625402E01, 3.016837E02
$$ 3.698853E01, 2.968021E02
$$ 3.772073E01, 2.919314E02
$$ 3.845058E01, 2.870713E02
$$ 3.917804E01, 2.822221E02
$$ 3.990306E01, 2.773837E02
$$ 4.062559E01, 2.725561E02
$$ 4.134558E01, 2.677394E02
$$ 4.206301E01, 2.629333E02
$$ 4.277781E01, 2.581382E02
$$ 4.348994E01, 2.533537E02
$$ 4.419937E01, 2.485802E02
$$ 4.490604E01, 2.438174E02
$$ 4.560992E01, 2.390654E02
$$ 4.631095E01, 2.343241E02
$$ 4.700910E01, 2.295937E02
$$ 4.770431E01, 2.248741E02
$$ 4.839656E01, 2.201653E02
$$ 4.908579E01, 2.154674E02
$$ 4.977196E01, 2.107801E02
$$ 5.045503E01, 2.061038E02
$$ 5.113496E01, 2.014381E02
$$ 5.181170E01, 1.967834E02
$$ 5.248522E01, 1.921393E02
$$ 5.315546E01, 1.875062E02
$$ 5.382239E01, 1.828837E02
$$ 5.448597E01, 1.782721E02
$$ 5.514615E01, 1.736713E02
$$ 5.580290E01, 1.690813E02
$$ 5.645617E01, 1.645021E02
$$ 5.710592E01, 1.599337E02
$$ 5.775212E01, 1.553761E02
$$ 5.839471E01, 1.508293E02
$$ 5.903367E01, 1.462934E02
$$ 5.966895E01, 1.417682E02
$$ 6.030051E01, 1.372537E02
$$ 6.092832E01, 1.327501E02
$$ 6.155232E01, 1.282573E02
$$ 6.217250E01, 1.237754E02
$$ 6.278880E01, 1.193041E02
$$ 6.340118E01, 1.148438E02
$$ 6.400962E01, 1.103941E02
$$ 6.461407E01, 1.059553E02
$$ 6.521449E01, 1.015274E02
$$ 6.581085E01, 9.711015E01
$$ 6.640311E01, 9.270375E01
$$ 6.699124E01, 8.830815E01
$$ 6.757518E01, 8.392335E01
$$ 6.815492E01, 7.954935E01
$$ 6.873041E01, 7.518615E01
$$ 6.930162E01, 7.083375E01
$$ 6.986851E01, 6.649215E01
$$ 7.043105E01, 6.216135E01
$$ 7.098920E01, 5.784135E01
$$ 7.154293E01, 5.353215E01
$$ 7.209220E01, 4.923375E01
$$ 7.263698E01, 4.494615E01
$$ 7.317723E01, 4.066935E01
$$ 7.371292E01, 3.640335E01
$$ 7.424402E01, 3.214815E01
$$ 7.477049E01, 2.790375E01
$$ 7.529231E01, 2.367015E01
$$ 7.580943E01, 1.944735E01
$$ 7.632183E01, 1.523535E01
$$ 7.682948E01, 1.103415E01
$$ 7.733233E01, 6.843750E00
$$ 7.783037E01, 2.664150E00
$$ 7.832356E01, 3.584954E02
$$ 7.881187E01, 3.543373E02
$$ 7.929527E01, 3.501902E02
$$ 7.977373E01, 3.460537E02
$$ 8.024722E01, 3.419282E02
$$ 8.071571E01, 3.378133E02
$$ 8.117917E01, 3.337094E02
$$ 8.163757E01, 3.296161E02
$$ 8.209089E01, 3.255337E02
$$ 8.253909E01, 3.214621E02
$$ 8.298215E01, 3.174013E02
$$ 8.342003E01, 3.133514E02
$$ 8.385272E01, 3.093122E02
$$ 8.428019E01, 3.052837E02
$$ 8.470240E01, 3.012662E02
$$ 8.511934E01, 2.972593E02
$$ 8.553097E01, 2.932634E02
$$ 8.593728E01, 2.892781E02
$$ 8.633823E01, 2.853038E02
$$ 8.673380E01, 2.813401E02
$$ 8.712396E01, 2.773873E02
$$ 8.750870E01, 2.734453E02
$$ 8.788799E01, 2.695142E02
$$ 8.826180E01, 2.655938E02
$$ 8.863011E01, 2.616842E02
$$ 8.899290E01, 2.577854E02
$$ 8.935014E01, 2.538973E02
$$ 8.970182E01, 2.500202E02
$$ 9.004790E01, 2.461537E02
$$ 9.038838E01, 2.422981E02
$$ 9.072323E01, 2.384533E02
$$ 9.105242E01, 2.346193E02
$$ 9.137594E01, 2.307962E02
$$ 9.169376E01, 2.269838E02
$$ 9.200588E01, 2.231821E02
$$ 9.231226E01, 2.193914E02
$$ 9.261288E01, 2.156114E02
$$ 9.290774E01, 2.118421E02
$$ 9.319681E01, 2.080838E02
$$ 9.348008E01, 2.043361E02
$$ 9.375751E01, 2.005993E02
$$ 9.402911E01, 1.968733E02
$$ 9.429485E01, 1.931581E02
$$ 9.455471E01, 1.894537E02
$$ 9.480868E01, 1.857602E02
$$ 9.505675E01, 1.820774E02
$$ 9.529889E01, 1.784053E02
$$ 9.553510E01, 1.747442E02
$$ 9.576535E01, 1.710937E02
$$ 9.598963E01, 1.674542E02
$$ 9.620794E01, 1.638253E02
$$ 9.642025E01, 1.602074E02
$$ 9.662655E01, 1.566001E02
$$ 9.682683E01, 1.530037E02
$$ 9.702108E01, 1.494181E02
$$ 9.720928E01, 1.458434E02
$$ 9.739143E01, 1.422794E02
$$ 9.756751E01, 1.387261E02
$$ 9.773751E01, 1.351837E02
$$ 9.790142E01, 1.316521E02
$$ 9.805923E01, 1.281314E02
$$ 9.821093E01, 1.246213E02
$$ 9.835651E01, 1.211222E02
$$ 9.849597E01, 1.176337E02
$$ 9.862928E01, 1.141562E02
$$ 9.875646E01, 1.106893E02
$$ 9.887747E01, 1.072333E02
$$ 9.899233E01, 1.037881E02
$$ 9.910102E01, 1.003537E02
$$ 9.920354E01, 9.693015E01
$$ 9.929987E01, 9.351735E01
$$ 9.939002E01, 9.011535E01
$$ 9.947397E01, 8.672415E01
$$ 9.955173E01, 8.334375E01
$$ 9.962328E01, 7.997415E01
$$ 9.968863E01, 7.661535E01
$$ 9.974776E01, 7.326735E01
$$ 9.980069E01, 6.993015E01
$$ 9.984739E01, 6.660375E01
$$ 9.988787E01, 6.328815E01
$$ 9.992213E01, 5.998335E01
$$ 9.995016E01, 5.668935E01
$$ 9.997196E01, 5.340615E01
$$ 9.998754E01, 5.013375E01
$$ 9.999688E01, 4.687215E01
$$ 1.000000E02, 4.362135E01
$$ 1.000000E02, 4.038135E01
$$ 1.000000E02, 3.715215E01
$$ 1.000000E02, 3.393375E01
$$ 1.000000E02, 3.072615E01
$$ 1.000000E02, 2.752935E01
$$ 1.000000E02, 2.434335E01
$$ 1.000000E02, 2.116815E01
$$ 1.000000E02, 1.800375E01
$$ 1.000000E02, 1.485015E01
$$ 1.000000E02, 1.170735E01
$$ 1.000000E02, 8.575350E00
$$ 1.000000E02, 5.454150E00
$$ 1.000000E02, 2.343750E00
$$ 1.000000E02, 3.592442E02
$$ 1.000000E02, 3.561554E02
$$ 1.000000E02, 3.530773E02
$$ 1.000000E02, 3.500102E02
$$ 1.000000E02, 3.469537E02
$$ 1.000000E02, 3.439082E02
$$ 1.000000E02, 3.408734E02
$$ 1.000000E02, 3.378493E02
$$ 1.000000E02, 3.348362E02
$$ 1.000000E02, 3.318337E02
$$ 1.000000E02, 3.288422E02
$$ 1.000000E02, 3.258613E02
$$ 1.000000E02, 3.228914E02
$$ 1.000000E02, 3.199322E02
$$ 1.000000E02, 3.169838E02
$$ 1.000000E02, 3.140461E02
$$ 1.000000E02, 3.111193E02
$$ 1.000000E02, 3.082033E02
$$ 1.000000E02, 3.052981E02
$$ 1.000000E02, 3.024038E02
$$ 1.000000E02, 2.995201E02
$$ 1.000000E02, 2.966474E02
$$ 1.000000E02, 2.937853E02
$$ 1.000000E02, 2.909342E02
$$ 1.000000E02, 2.880937E02
$$ 1.000000E02, 2.852642E02
$$ 1.000000E02, 2.824453E02
$$ 1.000000E02, 2.796373E02
$$ 1.000000E02, 2.768402E02
$$ 1.000000E02, 2.740537E02
$$ 1.000000E02, 2.712782E02
$$ 1.000000E02, 2.685133E02
$$ 1.000000E02, 2.657594E02
$$ 1.000000E02, 2.630161E02
$$ 1.000000E02, 2.602838E02
$$ 1.000000E02, 2.575622E02
$$ 1.000000E02, 2.548513E02
$$ 1.000000E02, 2.521513E02
$$ 1.000000E02, 2.494621E02
$$ 1.000000E02, 2.467838E02
$$ 1.000000E02, 2.441161E02
$$ 1.000000E02, 2.414593E02
$$ 1.000000E02, 2.388133E02
$$ 1.000000E02, 2.361781E02
$$ 1.000000E02, 2.335537E02
$$ 1.000000E02, 2.309401E02
$$ 1.000000E02, 2.283374E02
$$ 1.000000E02, 2.257454E02
$$ 1.000000E02, 2.231642E02
$$ 1.000000E02, 2.205938E02
$$ 1.000000E02, 2.180342E02
$$ 1.000000E02, 2.154853E02
$$ 1.000000E02, 2.129473E02
$$ 1.000000E02, 2.104201E02
$$ 1.000000E02, 2.079038E02
$$ 1.000000E02, 2.053982E02
$$ 1.000000E02, 2.029034E02
$$ 1.000000E02, 2.004194E02
$$ 1.000000E02, 1.979462E02
$$ 1.000000E02, 1.954838E02
$$ 1.000000E02, 1.930322E02
$$ 1.000000E02, 1.905913E02
$$ 1.000000E02, 1.881613E02
$$ 1.000000E02, 1.857421E02
$$ 1.000000E02, 1.833337E02
$$ 1.000000E02, 1.809362E02
$$ 1.000000E02, 1.785494E02
$$ 1.000000E02, 1.761733E02
$$ 1.000000E02, 1.738082E02
$$ 1.000000E02, 1.714538E02
$$ 1.000000E02, 1.691101E02
$$ 1.000000E02, 1.667773E02
$$ 1.000000E02, 1.644553E02
$$ 1.000000E02, 1.621441E02
$$ 1.000000E02, 1.598437E02
$$ 1.000000E02, 1.575542E02
$$ 1.000000E02, 1.552753E02
$$ 1.000000E02, 1.530073E02
$$ 1.000000E02, 1.507502E02
$$ 1.000000E02, 1.485038E02
$$ 1.000000E02, 1.462681E02
$$ 1.000000E02, 1.440433E02
$$ 1.000000E02, 1.418293E02
$$ 1.000000E02, 1.396261E02
$$ 1.000000E02, 1.374338E02
$$ 1.000000E02, 1.352521E02
$$ 1.000000E02, 1.330814E02
$$ 1.000000E02, 1.309214E02
$$ 1.000000E02, 1.287722E02
$$ 1.000000E02, 1.266337E02
$$ 1.000000E02, 1.245061E02
$$ 1.000000E02, 1.223893E02
$$ 1.000000E02, 1.202833E02
$$ 1.000000E02, 1.181881E02
$$ 1.000000E02, 1.161037E02
$$ 1.000000E02, 1.140301E02
$$ 1.000000E02, 1.119673E02
$$ 1.000000E02, 1.099154E02
$$ 1.000000E02, 1.078741E02
$$ 1.000000E02, 1.058438E02
$$ 1.000000E02, 1.038241E02
$$ 1.000000E02, 1.018153E02
$$ 1.000000E02, 9.981735E01
$$ 1.000000E02, 9.783015E01
$$ 1.000000E02, 9.585375E01
$$ 1.000000E02, 9.388815E01
$$ 1.000000E02, 9.193335E01
$$ 1.000000E02, 8.998935E01
$$ 1.000000E02, 8.805615E01
$$ 1.000000E02, 8.613375E01
$$ 1.000000E02, 8.422215E01
$$ 1.000000E02, 8.232135E01
$$ 1.000000E02, 8.043135E01
$$ 1.000000E02, 7.855215E01
$$ 1.000000E02, 7.668375E01
$$ 1.000000E02, 7.482615E01
$$ 1.000000E02, 7.297935E01
$$ 1.000000E02, 7.114335E01
$$ 1.000000E02, 6.931815E01
$$ 1.000000E02, 6.750375E01
$$ 1.000000E02, 6.570015E01
$$ 1.000000E02, 6.390735E01
$$ 1.000000E02, 6.212535E01
$$ 1.000000E02, 6.035415E01
$$ 1.000000E02, 5.859375E01
$$ 1.000000E02, 5.684415E01
$$ 1.000000E02, 5.510535E01
$$ 1.000000E02, 5.337735E01
$$ 1.000000E02, 5.166015E01
$$ 1.000000E02, 4.995375E01
$$ 1.000000E02, 4.825815E01
$$ 1.000000E02, 4.657335E01
$$ 1.000000E02, 4.489935E01
$$ 1.000000E02, 4.323615E01
$$ 1.000000E02, 4.158375E01
$$ 1.000000E02, 3.994215E01
$$ 1.000000E02, 3.831135E01
$$ 1.000000E02, 3.669135E01
$$ 1.000000E02, 3.508215E01
$$ 1.000000E02, 3.348375E01
$$ 1.000000E02, 3.189615E01
$$ 1.000000E02, 3.031935E01
$$ 1.000000E02, 2.875335E01
$$ 1.000000E02, 2.719815E01
$$ 1.000000E02, 2.565375E01
$$ 1.000000E02, 2.412015E01
$$ 1.000000E02, 2.259735E01
$$ 1.000000E02, 2.108535E01
$$ 1.000000E02, 1.958415E01
$$ 1.000000E02, 1.809375E01
$$ 1.000000E02, 1.661415E01
$$ 1.000000E02, 1.514535E01
$$ 1.000000E02, 1.368735E01
$$ 1.000000E02, 1.224015E01
$$ 1.000000E02, 1.080375E01
$$ 1.000000E02, 9.378150E00
$$ 1.000000E02, 7.963350E00
$$ 1.000000E02, 6.559350E00
$$ 1.000000E02, 5.166150E00
$$ 1.000000E02, 3.783750E00
$$ 1.000000E02, 2.412150E00
$$ 1.000000E02, 1.051350E00
$$ 1.000000E02, 3.597014E02
$$ 1.000000E02, 3.583622E02
$$ 1.000000E02, 3.570338E02
$$ 1.000000E02, 3.557161E02
$$ 1.000000E02, 3.544094E02
$$ 1.000000E02, 3.531133E02
$$ 1.000000E02, 3.518282E02
$$ 1.000000E02, 3.505538E02
$$ 1.000000E02, 3.492902E02
$$ 1.000000E02, 3.480373E02
$$ 1.000000E02, 3.467954E02
$$ 1.000000E02, 3.455642E02
$$ 1.000000E02, 3.443438E02
$$ 1.000000E02, 3.431342E02
$$ 1.000000E02, 3.419353E02
$$ 1.000000E02, 3.407474E02
$$ 1.000000E02, 3.395702E02
$$ 1.000000E02, 3.384038E02
$$ 1.000000E02, 3.372482E02
$$ 1.000000E02, 3.361034E02
$$ 1.000000E02, 3.349693E02
$$ 1.000000E02, 3.338461E02
$$ 1.000000E02, 3.327338E02
$$ 1.000000E02, 3.316322E02
$$ 1.000000E02, 3.305413E02
$$ 1.000000E02, 3.294614E02
$$ 1.000000E02, 3.283922E02
$$ 1.000000E02, 3.273338E02
$$ 1.000000E02, 3.262862E02
$$ 1.000000E02, 3.252494E02
$$ 1.000000E02, 3.242234E02
$$ 1.000000E02, 3.232082E02
$$ 1.000000E02, 3.222038E02
$$ 1.000000E02, 3.212102E02
$$ 1.000000E02, 3.202274E02
$$ 1.000000E02, 3.192554E02
$$ 1.000000E02, 3.182942E02
$$ 1.000000E02, 3.173438E02
$$ 1.000000E02, 3.164042E02
$$ 1.000000E02, 3.154754E02
$$ 1.000000E02, 3.145574E02
$$ 1.000000E02, 3.136502E02
$$ 1.000000E02, 3.127537E02
$$ 1.000000E02, 3.118682E02
$$ 1.000000E02, 3.109933E02
$$ 1.000000E02, 3.101294E02
$$ 1.000000E02, 3.092762E02
$$ 1.000000E02, 3.084338E02
$$ 1.000000E02, 3.076022E02
$$ 1.000000E02, 3.067814E02
$$ 1.000000E02, 3.059714E02
$$ 1.000000E02, 3.051722E02
$$ 1.000000E02, 3.043838E02
$$ 1.000000E02, 3.036062E02
$$ 1.000000E02, 3.028393E02
$$ 1.000000E02, 3.020834E02
$$ 1.000000E02, 3.013382E02
$$ 1.000000E02, 3.006038E02
$$ 1.000000E02, 2.998802E02
$$ 1.000000E02, 2.991674E02
$$ 1.000000E02, 2.984654E02
$$ 1.000000E02, 2.977742E02
$$ 1.000000E02, 2.970938E02
$$ 1.000000E02, 2.964242E02
$$ 1.000000E02, 2.957654E02
$$ 1.000000E02, 2.951174E02
$$ 1.000000E02, 2.944802E02
$$ 1.000000E02, 2.938538E02
$$ 1.000000E02, 2.932382E02
$$ 1.000000E02, 2.926334E02
$$ 1.000000E02, 2.920394E02
$$ 1.000000E02, 2.914562E02
$$ 1.000000E02, 2.908837E02
$$ 1.000000E02, 2.903221E02
$$ 1.000000E02, 2.897714E02
$$ 1.000000E02, 2.892314E02
$$ 1.000000E02, 2.887022E02
$$ 1.000000E02, 2.881838E02
$$ 1.000000E02, 2.876762E02
$$ 1.000000E02, 2.871794E02
$$ 1.000000E02, 2.866934E02
$$ 1.000000E02, 2.862182E02
$$ 1.000000E02, 2.857537E02
$$ 1.000000E02, 2.853002E02
$$ 1.000000E02, 2.848574E02
$$ 1.000000E02, 2.844254E02
$$ 1.000000E02, 2.840042E02
$$ 1.000000E02, 2.835938E02
$$ 1.000000E02, 2.831942E02
$$ 1.000000E02, 2.828054E02
$$ 1.000000E02, 2.824274E02
$$ 1.000000E02, 2.820602E02
$$ 1.000000E02, 2.817038E02
$$ 1.000000E02, 2.813582E02
$$ 1.000000E02, 2.810234E02
$$ 1.000000E02, 2.806994E02
$$ 1.000000E02, 2.803862E02
$$ 1.000000E02, 2.800838E02
$$ 1.000000E02, 2.797922E02
$$ 1.000000E02, 2.795114E02
$$ 1.000000E02, 2.792414E02
$$ 1.000000E02, 2.789822E02
$$ 1.000000E02, 2.787338E02
$$ 1.000000E02, 2.784962E02
$$ 1.000000E02, 2.782694E02
$$ 1.000000E02, 2.780534E02
$$ 1.000000E02, 2.778482E02
$$ 1.000000E02, 2.776538E02
$$ 1.000000E02, 2.774702E02
$$ 1.000000E02, 2.772974E02
$$ 1.000000E02, 2.771354E02
$$ 1.000000E02, 2.769842E02
$$ 1.000000E02, 2.768438E02
$$ 1.000000E02, 2.767142E02
$$ 1.000000E02, 2.765954E02
$$ 1.000000E02, 2.764874E02
$$ 1.000000E02, 2.763902E02
$$ 1.000000E02, 2.763038E02
$$ 1.000000E02, 2.762282E02
$$ 1.000000E02, 2.761634E02
$$ 1.000000E02, 2.761094E02
$$ 1.000000E02, 2.760662E02
$$ 1.000000E02, 2.760338E02
$$ 1.000000E02, 2.760122E02
$$ 1.000000E02, 2.760014E02
$$ 1.000000E02, 2.760014E02
$$ 1.000000E02, 2.760122E02
$$ 1.000000E02, 2.760338E02
$$ 1.000000E02, 2.760662E02
$$ 1.000000E02, 2.761094E02
$$ 1.000000E02, 2.761634E02
$$ 1.000000E02, 2.762282E02
$$ 1.000000E02, 2.763038E02
$$ 1.000000E02, 2.763902E02
$$ 1.000000E02, 2.764874E02
$$ 1.000000E02, 2.765954E02
$$ 1.000000E02, 2.767142E02
$$ 1.000000E02, 2.768438E02
$$ 1.000000E02, 2.769842E02
$$ 1.000000E02, 2.771354E02
$$ 1.000000E02, 2.772974E02
$$ 1.000000E02, 2.774702E02
$$ 1.000000E02, 2.776538E02
$$ 1.000000E02, 2.778482E02
$$ 1.000000E02, 2.780534E02
$$ 1.000000E02, 2.782694E02
$$ 1.000000E02, 2.784962E02
$$ 1.000000E02, 2.787338E02
$$ 1.000000E02, 2.789822E02
$$ 1.000000E02, 2.792414E02
$$ 1.000000E02, 2.795114E02
$$ 1.000000E02, 2.797922E02
$$ 1.000000E02, 2.800838E02
$$ 1.000000E02, 2.803862E02
$$ 1.000000E02, 2.806994E02
$$ 1.000000E02, 2.810234E02
$$ 1.000000E02, 2.813582E02
$$ 1.000000E02, 2.817038E02
$$ 1.000000E02, 2.820602E02
$$ 1.000000E02, 2.824274E02
$$ 1.000000E02, 2.828054E02
$$ 1.000000E02, 2.831942E02
$$ 1.000000E02, 2.835938E02
$$ 1.000000E02, 2.840042E02
$$ 1.000000E02, 2.844254E02
$$ 1.000000E02, 2.848574E02
$$ 1.000000E02, 2.853002E02
$$ 1.000000E02, 2.857537E02
$$ 1.000000E02, 2.862182E02
$$ 1.000000E02, 2.866934E02
$$ 1.000000E02, 2.871794E02
$$ 1.000000E02, 2.876762E02
$$ 1.000000E02, 2.881838E02
$$ 1.000000E02, 2.887022E02
$$ 1.000000E02, 2.892314E02
$$ 1.000000E02, 2.897714E02
$$ 1.000000E02, 2.903221E02
$$ 1.000000E02, 2.908837E02
$$ 1.000000E02, 2.914562E02
$$ 1.000000E02, 2.920394E02
$$ 1.000000E02, 2.926334E02
$$ 1.000000E02, 2.932382E02
$$ 1.000000E02, 2.938538E02
$$ 1.000000E02, 2.944802E02
$$ 1.000000E02, 2.951174E02
$$ 1.000000E02, 2.957654E02
$$ 1.000000E02, 2.964242E02
$$ 1.000000E02, 2.970938E02
$$ 1.000000E02, 2.977742E02
$$ 1.000000E02, 2.984654E02
$$ 1.000000E02, 2.991674E02
$$ 1.000000E02, 2.998802E02
$$ 1.000000E02, 3.006038E02
$$ 1.000000E02, 3.013382E02
$$ 1.000000E02, 3.020834E02
$$ 1.000000E02, 3.028393E02
$$ 1.000000E02, 3.036062E02
$$ 1.000000E02, 3.043838E02
$$ 1.000000E02, 3.051722E02
$$ 1.000000E02, 3.059714E02
$$ 1.000000E02, 3.067814E02
$$ 1.000000E02, 3.076022E02
$$ 1.000000E02, 3.084338E02
$$ 1.000000E02, 3.092762E02
$$ 1.000000E02, 3.101294E02
$$ 1.000000E02, 3.109933E02
$$ 1.000000E02, 3.118682E02
$$ 1.000000E02, 3.127537E02
$$ 1.000000E02, 3.136502E02
$$ 1.000000E02, 3.145574E02
$$ 1.000000E02, 3.154754E02
$$ 1.000000E02, 3.164042E02
$$ 1.000000E02, 3.173438E02
$$ 1.000000E02, 3.182942E02
$$ 1.000000E02, 3.192554E02
$$ 1.000000E02, 3.202274E02
$$ 1.000000E02, 3.212102E02
$$ 1.000000E02, 3.222038E02
$$ 1.000000E02, 3.232082E02
$$ 1.000000E02, 3.242234E02
$$ 1.000000E02, 3.252494E02
$$ 1.000000E02, 3.262862E02
$$ 1.000000E02, 3.273338E02
$$ 1.000000E02, 3.283922E02
$$ 1.000000E02, 3.294614E02
$$ 1.000000E02, 3.305413E02
$$ 1.000000E02, 3.316322E02
$$ 1.000000E02, 3.327338E02
$$ 1.000000E02, 3.338461E02
$$ 1.000000E02, 3.349693E02
$$ 1.000000E02, 3.361034E02
$$ 1.000000E02, 3.372482E02
$$ 1.000000E02, 3.384038E02
$$ 1.000000E02, 3.395702E02
$$ 1.000000E02, 3.407474E02
$$ 1.000000E02, 3.419353E02
$$ 1.000000E02, 3.431342E02
$$ 1.000000E02, 3.443438E02
$$ 1.000000E02, 3.455642E02
$$ 1.000000E02, 3.467954E02
$$ 1.000000E02, 3.480373E02
$$ 1.000000E02, 3.492902E02
$$ 1.000000E02, 3.505538E02
$$ 1.000000E02, 3.518282E02
$$ 1.000000E02, 3.531133E02
$$ 1.000000E02, 3.544094E02
$$ 1.000000E02, 3.557161E02
$$ 1.000000E02, 3.570338E02
$$ 1.000000E02, 3.583622E02
$$ 1.000000E02, 3.597014E02
$$ 1.000000E02, 1.051350E00
$$ 1.000000E02, 2.412150E00
$$ 1.000000E02, 3.783750E00
$$ 1.000000E02, 5.166150E00
$$ 1.000000E02, 6.559350E00
$$ 1.000000E02, 7.963350E00
$$ 1.000000E02, 9.378150E00
$$ 1.000000E02, 1.080375E01
$$ 1.000000E02, 1.224015E01
$$ 1.000000E02, 1.368735E01
$$ 1.000000E02, 1.514535E01
$$ 1.000000E02, 1.661415E01
$$ 1.000000E02, 1.809375E01
$$ 1.000000E02, 1.958415E01
$$ 1.000000E02, 2.108535E01
$$ 1.000000E02, 2.259735E01
$$ 1.000000E02, 2.412015E01
$$ 1.000000E02, 2.565375E01
$$ 1.000000E02, 2.719815E01
$$ 1.000000E02, 2.875335E01
$$ 1.000000E02, 3.031935E01
$$ 1.000000E02, 3.189615E01
$$ 1.000000E02, 3.348375E01
$$ 1.000000E02, 3.508215E01
$$ 1.000000E02, 3.669135E01
$$ 1.000000E02, 3.831135E01
$$ 1.000000E02, 3.994215E01
$$ 1.000000E02, 4.158375E01
$$ 1.000000E02, 4.323615E01
$$ 1.000000E02, 4.489935E01
$$ 1.000000E02, 4.657335E01
$$ 1.000000E02, 4.825815E01
$$ 1.000000E02, 4.995375E01
$$ 1.000000E02, 5.166015E01
$$ 1.000000E02, 5.337735E01
$$ 1.000000E02, 5.510535E01
$$ 1.000000E02, 5.684415E01
$$ 1.000000E02, 5.859375E01
$$ 1.000000E02, 6.035415E01
$$ 1.000000E02, 6.212535E01
$$ 1.000000E02, 6.390735E01
$$ 1.000000E02, 6.570015E01
$$ 1.000000E02, 6.750375E01
$$ 1.000000E02, 6.931815E01
$$ 1.000000E02, 7.114335E01
$$ 1.000000E02, 7.297935E01
$$ 1.000000E02, 7.482615E01
$$ 1.000000E02, 7.668375E01
$$ 1.000000E02, 7.855215E01
$$ 1.000000E02, 8.043135E01
$$ 1.000000E02, 8.232135E01
$$ 1.000000E02, 8.422215E01
$$ 1.000000E02, 8.613375E01
$$ 1.000000E02, 8.805615E01
$$ 1.000000E02, 8.998935E01
$$ 1.000000E02, 9.193335E01
$$ 1.000000E02, 9.388815E01
$$ 1.000000E02, 9.585375E01
$$ 1.000000E02, 9.783015E01
$$ 1.000000E02, 9.981735E01
$$ 1.000000E02, 1.018153E02
$$ 1.000000E02, 1.038241E02
$$ 1.000000E02, 1.058438E02
$$ 1.000000E02, 1.078741E02
$$ 1.000000E02, 1.099154E02
$$ 1.000000E02, 1.119673E02
$$ 1.000000E02, 1.140301E02
$$ 1.000000E02, 1.161037E02
$$ 1.000000E02, 1.181881E02
$$ 1.000000E02, 1.202833E02
$$ 1.000000E02, 1.223893E02
$$ 1.000000E02, 1.245061E02
$$ 1.000000E02, 1.266337E02
$$ 1.000000E02, 1.287722E02
$$ 1.000000E02, 1.309214E02
$$ 1.000000E02, 1.330814E02
$$ 1.000000E02, 1.352521E02
$$ 1.000000E02, 1.374338E02
$$ 1.000000E02, 1.396261E02
$$ 1.000000E02, 1.418293E02
$$ 1.000000E02, 1.440433E02
$$ 1.000000E02, 1.462681E02
$$ 1.000000E02, 1.485038E02
$$ 1.000000E02, 1.507502E02
$$ 1.000000E02, 1.530073E02
$$ 1.000000E02, 1.552753E02
$$ 1.000000E02, 1.575542E02
$$ 1.000000E02, 1.598437E02
$$ 1.000000E02, 1.621441E02
$$ 1.000000E02, 1.644553E02
$$ 1.000000E02, 1.667773E02
$$ 1.000000E02, 1.691101E02
$$ 1.000000E02, 1.714538E02
$$ 1.000000E02, 1.738082E02
$$ 1.000000E02, 1.761733E02
$$ 1.000000E02, 1.785494E02
$$ 1.000000E02, 1.809362E02
$$ 1.000000E02, 1.833337E02
$$ 1.000000E02, 1.857421E02
$$ 1.000000E02, 1.881613E02
$$ 1.000000E02, 1.905913E02
$$ 1.000000E02, 1.930322E02
$$ 1.000000E02, 1.954838E02
$$ 1.000000E02, 1.979462E02
$$ 1.000000E02, 2.004194E02
$$ 1.000000E02, 2.029034E02
$$ 1.000000E02, 2.053982E02
$$ 1.000000E02, 2.079038E02
$$ 1.000000E02, 2.104201E02
$$ 1.000000E02, 2.129473E02
$$ 1.000000E02, 2.154853E02
$$ 1.000000E02, 2.180342E02
$$ 1.000000E02, 2.205938E02
$$ 1.000000E02, 2.231642E02
$$ 1.000000E02, 2.257454E02
$$ 1.000000E02, 2.283374E02
$$ 1.000000E02, 2.309401E02
$$ 1.000000E02, 2.335537E02
$$ 1.000000E02, 2.361781E02
$$ 1.000000E02, 2.388133E02
$$ 1.000000E02, 2.414593E02
$$ 1.000000E02, 2.441161E02
$$ 1.000000E02, 2.467838E02
$$ 1.000000E02, 2.494621E02
$$ 1.000000E02, 2.521513E02
$$ 1.000000E02, 2.548513E02
$$ 1.000000E02, 2.575622E02
$$ 1.000000E02, 2.602838E02
$$ 1.000000E02, 2.630161E02
$$ 1.000000E02, 2.657594E02
$$ 1.000000E02, 2.685133E02
$$ 1.000000E02, 2.712782E02
$$ 1.000000E02, 2.740537E02
$$ 1.000000E02, 2.768402E02
$$ 1.000000E02, 2.796373E02
$$ 1.000000E02, 2.824453E02
$$ 1.000000E02, 2.852642E02
$$ 1.000000E02, 2.880937E02
$$ 1.000000E02, 2.909342E02
$$ 1.000000E02, 2.937853E02
$$ 1.000000E02, 2.966474E02
$$ 1.000000E02, 2.995201E02
$$ 1.000000E02, 3.024038E02
$$ 1.000000E02, 3.052981E02
$$ 1.000000E02, 3.082033E02
$$ 1.000000E02, 3.111193E02
$$ 1.000000E02, 3.140461E02
$$ 1.000000E02, 3.169838E02
$$ 1.000000E02, 3.199322E02
$$ 1.000000E02, 3.228914E02
$$ 1.000000E02, 3.258613E02
$$ 1.000000E02, 3.288422E02
$$ 1.000000E02, 3.318337E02
$$ 1.000000E02, 3.348362E02
$$ 1.000000E02, 3.378493E02
$$ 1.000000E02, 3.408734E02
$$ 1.000000E02, 3.439082E02
$$ 1.000000E02, 3.469537E02
$$ 1.000000E02, 3.500102E02
$$ 1.000000E02, 3.530773E02
$$ 1.000000E02, 3.561554E02
$$ 1.000000E02, 3.592442E02
$$ 1.000000E02, 2.343750E00
$$ 1.000000E02, 5.454150E00
$$ 1.000000E02, 8.575350E00
$$ 1.000000E02, 1.170735E01
$$ 1.000000E02, 1.485015E01
$$ 1.000000E02, 1.800375E01
$$ 1.000000E02, 2.116815E01
$$ 1.000000E02, 2.434335E01
$$ 1.000000E02, 2.752935E01
$$ 1.000000E02, 3.072615E01
$$ 1.000000E02, 3.393375E01
$$ 1.000000E02, 3.715215E01
$$ 1.000000E02, 4.038135E01
$$ 1.000000E02, 4.362135E01
$$ 9.999688E01, 4.687215E01
$$ 9.998754E01, 5.013375E01
$$ 9.997196E01, 5.340615E01
$$ 9.995016E01, 5.668935E01
$$ 9.992213E01, 5.998335E01
$$ 9.988787E01, 6.328815E01
$$ 9.984739E01, 6.660375E01
$$ 9.980069E01, 6.993015E01
$$ 9.974776E01, 7.326735E01
$$ 9.968863E01, 7.661535E01
$$ 9.962328E01, 7.997415E01
$$ 9.955173E01, 8.334375E01
$$ 9.947397E01, 8.672415E01
$$ 9.939002E01, 9.011535E01
$$ 9.929987E01, 9.351735E01
$$ 9.920354E01, 9.693015E01
$$ 9.910102E01, 1.003537E02
$$ 9.899233E01, 1.037881E02
$$ 9.887747E01, 1.072333E02
$$ 9.875646E01, 1.106893E02
$$ 9.862928E01, 1.141562E02
$$ 9.849597E01, 1.176337E02
$$ 9.835651E01, 1.211222E02
$$ 9.821093E01, 1.246213E02
$$ 9.805923E01, 1.281314E02
$$ 9.790142E01, 1.316521E02
$$ 9.773751E01, 1.351837E02
$$ 9.756751E01, 1.387261E02
$$ 9.739143E01, 1.422794E02
$$ 9.720928E01, 1.458434E02
$$ 9.702108E01, 1.494181E02
$$ 9.682683E01, 1.530037E02
$$ 9.662655E01, 1.566001E02
$$ 9.642025E01, 1.602074E02
$$ 9.620794E01, 1.638253E02
$$ 9.598963E01, 1.674542E02
$$ 9.576535E01, 1.710937E02
$$ 9.553510E01, 1.747442E02
$$ 9.529889E01, 1.784053E02
$$ 9.505675E01, 1.820774E02
$$ 9.480868E01, 1.857602E02
$$ 9.455471E01, 1.894537E02
$$ 9.429485E01, 1.931581E02
$$ 9.402911E01, 1.968733E02
$$ 9.375751E01, 2.005993E02
$$ 9.348008E01, 2.043361E02
$$ 9.319681E01, 2.080838E02
$$ 9.290774E01, 2.118421E02
$$ 9.261288E01, 2.156114E02
$$ 9.231226E01, 2.193914E02
$$ 9.200588E01, 2.231821E02
$$ 9.169376E01, 2.269838E02
$$ 9.137594E01, 2.307962E02
$$ 9.105242E01, 2.346193E02
$$ 9.072323E01, 2.384533E02
$$ 9.038838E01, 2.422981E02
$$ 9.004790E01, 2.461537E02
$$ 8.970182E01, 2.500202E02
$$ 8.935014E01, 2.538973E02
$$ 8.899290E01, 2.577854E02
$$ 8.863011E01, 2.616842E02
$$ 8.826180E01, 2.655938E02
$$ 8.788799E01, 2.695142E02
$$ 8.750870E01, 2.734453E02
$$ 8.712396E01, 2.773873E02
$$ 8.673380E01, 2.813401E02
$$ 8.633823E01, 2.853038E02
$$ 8.593728E01, 2.892781E02
$$ 8.553097E01, 2.932634E02
$$ 8.511934E01, 2.972593E02
$$ 8.470240E01, 3.012662E02
$$ 8.428019E01, 3.052837E02
$$ 8.385272E01, 3.093122E02
$$ 8.342003E01, 3.133514E02
$$ 8.298215E01, 3.174013E02
$$ 8.253909E01, 3.214621E02
$$ 8.209089E01, 3.255337E02
$$ 8.163757E01, 3.296161E02
$$ 8.117917E01, 3.337094E02
$$ 8.071571E01, 3.378133E02
$$ 8.024722E01, 3.419282E02
$$ 7.977373E01, 3.460537E02
$$ 7.929527E01, 3.501902E02
$$ 7.881187E01, 3.543373E02
$$ 7.832356E01, 3.584954E02
$$ 7.783037E01, 2.664150E00
$$ 7.733233E01, 6.843750E00
$$ 7.682948E01, 1.103415E01
$$ 7.632183E01, 1.523535E01
$$ 7.580943E01, 1.944735E01
$$ 7.529231E01, 2.367015E01
$$ 7.477049E01, 2.790375E01
$$ 7.424402E01, 3.214815E01
$$ 7.371292E01, 3.640335E01
$$ 7.317723E01, 4.066935E01
$$ 7.263698E01, 4.494615E01
$$ 7.209220E01, 4.923375E01
$$ 7.154293E01, 5.353215E01
$$ 7.098920E01, 5.784135E01
$$ 7.043105E01, 6.216135E01
$$ 6.986851E01, 6.649215E01
$$ 6.930162E01, 7.083375E01
$$ 6.873041E01, 7.518615E01
$$ 6.815492E01, 7.954935E01
$$ 6.757518E01, 8.392335E01
$$ 6.699124E01, 8.830815E01
$$ 6.640311E01, 9.270375E01
$$ 6.581085E01, 9.711015E01
$$ 6.521449E01, 1.015274E02
$$ 6.461407E01, 1.059553E02
$$ 6.400962E01, 1.103941E02
$$ 6.340118E01, 1.148438E02
$$ 6.278880E01, 1.193041E02
$$ 6.217250E01, 1.237754E02
$$ 6.155232E01, 1.282573E02
$$ 6.092832E01, 1.327501E02
$$ 6.030051E01, 1.372537E02
$$ 5.966895E01, 1.417682E02
$$ 5.903367E01, 1.462934E02
$$ 5.839471E01, 1.508293E02
$$ 5.775212E01, 1.553761E02
$$ 5.710592E01, 1.599337E02
$$ 5.645617E01, 1.645021E02
$$ 5.580290E01, 1.690813E02
$$ 5.514615E01, 1.736713E02
$$ 5.448597E01, 1.782721E02
$$ 5.382239E01, 1.828837E02
$$ 5.315546E01, 1.875062E02
$$ 5.248522E01, 1.921393E02
$$ 5.181170E01, 1.967834E02
$$ 5.113496E01, 2.014381E02
$$ 5.045503E01, 2.061038E02
$$ 4.977196E01, 2.107801E02
$$ 4.908579E01, 2.154674E02
$$ 4.839656E01, 2.201653E02
$$ 4.770431E01, 2.248741E02
$$ 4.700910E01, 2.295937E02
$$ 4.631095E01, 2.343241E02
$$ 4.560992E01, 2.390654E02
$$ 4.490604E01, 2.438174E02
$$ 4.419937E01, 2.485802E02
$$ 4.348994E01, 2.533537E02
$$ 4.277781E01, 2.581382E02
$$ 4.206301E01, 2.629333E02
$$ 4.134558E01, 2.677394E02
$$ 4.062559E01, 2.725561E02
$$ 3.990306E01, 2.773837E02
$$ 3.917804E01, 2.822221E02
$$ 3.845058E01, 2.870713E02
$$ 3.772073E01, 2.919314E02
$$ 3.698853E01, 2.968021E02
$$ 3.625402E01, 3.016837E02
$$ 3.551726E01, 3.065761E02
$$ 3.477828E01, 3.114793E02
$$ 3.403713E01, 3.163933E02
$$ 3.329386E01, 3.213182E02
$$ 3.254852E01, 3.262537E02
$$ 3.180115E01, 3.312001E02
$$ 3.105180E01, 3.361573E02
$$ 3.030052E01, 3.411253E02
$$ 2.954734E01, 3.461042E02
$$ 2.879233E01, 3.510937E02
$$ 2.803552E01, 3.560941E02
$$ 2.727697E01, 1.105350E00
$$ 2.651671E01, 6.127350E00
$$ 2.575481E01, 1.116015E01
$$ 2.499130E01, 1.620375E01
$$ 2.422623E01, 2.125815E01
$$ 2.345965E01, 2.632335E01
$$ 2.269161E01, 3.139935E01
$$ 2.192216E01, 3.648615E01
$$ 2.115134E01, 4.158375E01
$$ 2.037920E01, 4.669215E01
$$ 1.960579E01, 5.181135E01
$$ 1.883117E01, 5.694135E01
$$ 1.805537E01, 6.208215E01
$$ 1.727844E01, 6.723375E01
$$ 1.650044E01, 7.239615E01
$$ 1.572140E01, 7.756935E01
$$ 1.494139E01, 8.275335E01
$$ 1.416045E01, 8.794815E01
$$ 1.337863E01, 9.315375E01
$$ 1.259597E01, 9.837015E01
$$ 1.181253E01, 1.035973E02
$$ 1.102835E01, 1.088353E02
$$ 1.024348E01, 1.140841E02
$$ 9.457981E00, 1.193437E02
$$ 8.671888E00, 1.246142E02
$$ 7.885255E00, 1.298954E02
$$ 7.098130E00, 1.351873E02
$$ 6.310563E00, 1.404901E02
$$ 5.522603E00, 1.458037E02
$$ 4.734299E00, 1.511282E02
$$ 3.945700E00, 1.564633E02
$$ 3.156855E00, 1.618093E02
$$ 2.367813E00, 1.671662E02
$$ 1.578624E00, 1.725338E02
$$ 7.893367E-01, 1.779122E02
$$ 0.000000E00, 1.833013E02
$$ 0.000000E00, 9.330067E01
$$ 3.936823E-01, 8.790607E01
$$ 7.873584E-01, 8.251687E01
$$ 1.181022E00, 7.713307E01
$$ 1.574668E00, 7.175467E01
$$ 1.968289E00, 6.638167E01
$$ 2.361880E00, 6.101408E01
$$ 2.755434E00, 5.565187E01
$$ 3.148946E00, 5.029508E01
$$ 3.542408E00, 4.494368E01
$$ 3.935816E00, 3.959767E01
$$ 4.329163E00, 3.425707E01
$$ 4.722442E00, 2.892187E01
$$ 5.115649E00, 2.359208E01
$$ 5.508776E00, 1.826768E01
$$ 5.901818E00, 1.294867E01
$$ 6.294768E00, 7.635075E00
$$ 6.687621E00, 2.326875E00
$$ 7.080370E00, 3.570241E02
$$ 7.473009E00, 3.517267E02
$$ 7.865533E00, 3.464347E02
$$ 8.257935E00, 3.411481E02
$$ 8.650208E00, 3.358669E02
$$ 9.042348E00, 3.305911E02
$$ 9.434347E00, 3.253207E02
$$ 9.826200E00, 3.200557E02
$$ 1.021790E01, 3.147961E02
$$ 1.060944E01, 3.095419E02
$$ 1.100082E01, 3.042931E02
$$ 1.139203E01, 2.990497E02
$$ 1.178306E01, 2.938117E02
$$ 1.217391E01, 2.885791E02
$$ 1.256457E01, 2.833519E02
$$ 1.295503E01, 2.781301E02
$$ 1.334530E01, 2.729137E02
$$ 1.373536E01, 2.677027E02
$$ 1.412520E01, 2.624971E02
$$ 1.451483E01, 2.572969E02
$$ 1.490423E01, 2.521021E02
$$ 1.529340E01, 2.469127E02
$$ 1.568233E01, 2.417287E02
$$ 1.607102E01, 2.365501E02
$$ 1.645946E01, 2.313769E02
$$ 1.684764E01, 2.262091E02
$$ 1.723557E01, 2.210467E02
$$ 1.762323E01, 2.158897E02
$$ 1.801061E01, 2.107381E02
$$ 1.839771E01, 2.055919E02
$$ 1.878453E01, 2.004511E02
$$ 1.917106E01, 1.953157E02
$$ 1.955729E01, 1.901857E02
$$ 1.994322E01, 1.850611E02
$$ 2.032884E01, 1.799419E02
$$ 2.071415E01, 1.748281E02
$$ 2.109913E01, 1.697197E02
$$ 2.148379E01, 1.646167E02
$$ 2.186811E01, 1.595191E02
$$ 2.225209E01, 1.544269E02
$$ 2.263573E01, 1.493401E02
$$ 2.301902E01, 1.442587E02
$$ 2.340195E01, 1.391827E02
$$ 2.378452E01, 1.341121E02
$$ 2.416672E01, 1.290469E02
$$ 2.454855E01, 1.239871E02
$$ 2.492999E01, 1.189327E02
$$ 2.531105E01, 1.138837E02
$$ 2.569172E01, 1.088401E02
$$ 2.607199E01, 1.038019E02
$$ 2.645185E01, 9.876907E01
$$ 2.683131E01, 9.374168E01
$$ 2.721035E01, 8.871967E01
$$ 2.758896E01, 8.370307E01
$$ 2.796715E01, 7.869187E01
$$ 2.834491E01, 7.368607E01
$$ 2.872223E01, 6.868567E01
$$ 2.909910E01, 6.369067E01
$$ 2.947552E01, 5.870107E01
$$ 2.985148E01, 5.371687E01
$$ 3.022698E01, 4.873808E01
$$ 3.060201E01, 4.376467E01
$$ 3.097657E01, 3.879668E01
$$ 3.135065E01, 3.383407E01
$$ 3.172424E01, 2.887687E01
$$ 3.209734E01, 2.392508E01
$$ 3.246995E01, 1.897867E01
$$ 3.284205E01, 1.403768E01
$$ 3.321364E01, 9.102075E00
$$ 3.358471E01, 4.171875E00
$$ 3.395527E01, 3.592471E02
$$ 3.432530E01, 3.543277E02
$$ 3.469480E01, 3.494137E02
$$ 3.506376E01, 3.445051E02
$$ 3.543217E01, 3.396019E02
$$ 3.580004E01, 3.347041E02
$$ 3.616735E01, 3.298117E02
$$ 3.653410E01, 3.249247E02
$$ 3.690029E01, 3.200431E02
$$ 3.726590E01, 3.151669E02
$$ 3.763094E01, 3.102961E02
$$ 3.799539E01, 3.054307E02
$$ 3.835925E01, 3.005707E02
$$ 3.872252E01, 2.957161E02
$$ 3.908519E01, 2.908669E02
$$ 3.944726E01, 2.860231E02
$$ 3.980871E01, 2.811847E02
$$ 4.016954E01, 2.763517E02
$$ 4.052975E01, 2.715241E02
$$ 4.088934E01, 2.667019E02
$$ 4.124829E01, 2.618851E02
$$ 4.160660E01, 2.570737E02
$$ 4.196427E01, 2.522677E02
$$ 4.232128E01, 2.474671E02
$$ 4.267764E01, 2.426719E02
$$ 4.303334E01, 2.378821E02
$$ 4.338837E01, 2.330977E02
$$ 4.374273E01, 2.283187E02
$$ 4.409641E01, 2.235451E02
$$ 4.444941E01, 2.187769E02
$$ 4.480172E01, 2.140141E02
$$ 4.515334E01, 2.092567E02
$$ 4.550425E01, 2.045047E02
$$ 4.585446E01, 1.997581E02
$$ 4.620396E01, 1.950169E02
$$ 4.655274E01, 1.902811E02
$$ 4.690080E01, 1.855507E02
$$ 4.724814E01, 1.808257E02
$$ 4.759474E01, 1.761061E02
$$ 4.794060E01, 1.713919E02
$$ 4.828573E01, 1.666831E02
$$ 4.863010E01, 1.619797E02
$$ 4.897372E01, 1.572817E02
$$ 4.931658E01, 1.525891E02
$$ 4.965867E01, 1.479019E02
$$ 5.000000E01, 1.432201E02
$$ 5.034055E01, 1.385437E02
$$ 5.068032E01, 1.338727E02
$$ 5.101931E01, 1.292071E02
$$ 5.135750E01, 1.245469E02
$$ 5.169490E01, 1.198921E02
$$ 5.203150E01, 1.152427E02
$$ 5.236729E01, 1.105987E02
$$ 5.270227E01, 1.059601E02
$$ 5.303643E01, 1.013269E02
$$ 5.336978E01, 9.669908E01
$$ 5.370229E01, 9.207667E01
$$ 5.403397E01, 8.745968E01
$$ 5.436481E01, 8.284807E01
$$ 5.469482E01, 7.824187E01
$$ 5.502397E01, 7.364107E01
$$ 5.535227E01, 6.904567E01
$$ 5.567971E01, 6.445567E01
$$ 5.600629E01, 5.987107E01
$$ 5.633201E01, 5.529187E01
$$ 5.665684E01, 5.071807E01
$$ 5.698081E01, 4.614968E01
$$ 5.730388E01, 4.158668E01
$$ 5.762607E01, 3.702907E01
$$ 5.794737E01, 3.247687E01
$$ 5.826777E01, 2.793007E01
$$ 5.858726E01, 2.338867E01
$$ 5.890585E01, 1.885268E01
$$ 5.922353E01, 1.432207E01
$$ 5.954028E01, 9.796875E00
$$ 5.985612E01, 5.277075E00
$$ 6.017102E01, 7.626750E-01
$$ 6.048499E01, 3.562537E02
$$ 6.079803E01, 3.517501E02
$$ 6.111012E01, 3.472519E02
$$ 6.142127E01, 3.427591E02
$$ 6.173147E01, 3.382717E02
$$ 6.204070E01, 3.337897E02
$$ 6.234898E01, 3.293131E02
$$ 6.265629E01, 3.248419E02
$$ 6.296263E01, 3.203761E02
$$ 6.326799E01, 3.159157E02
$$ 6.357237E01, 3.114607E02
$$ 6.387577E01, 3.070111E02
$$ 6.417818E01, 3.025669E02
$$ 6.447959E01, 2.981281E02
$$ 6.478001E01, 2.936947E02
$$ 6.507941E01, 2.892667E02
$$ 6.537782E01, 2.848441E02
$$ 6.567520E01, 2.804269E02
$$ 6.597157E01, 2.760151E02
$$ 6.626692E01, 2.716087E02
$$ 6.656124E01, 2.672077E02
$$ 6.685453E01, 2.628121E02
$$ 6.714678E01, 2.584219E02
$$ 6.743799E01, 2.540371E02
$$ 6.772816E01, 2.496577E02
$$ 6.801727E01, 2.452837E02
$$ 6.830534E01, 2.409151E02
$$ 6.859234E01, 2.365519E02
$$ 6.887828E01, 2.321941E02
$$ 6.916315E01, 2.278417E02
$$ 6.944696E01, 2.234947E02
$$ 6.972968E01, 2.191531E02
$$ 7.001132E01, 2.148169E02
$$ 7.029188E01, 2.104861E02
$$ 7.057135E01, 2.061607E02
$$ 7.084973E01, 2.018407E02
$$ 7.112701E01, 1.975261E02
$$ 7.140318E01, 1.932169E02
$$ 7.167825E01, 1.889131E02
$$ 7.195221E01, 1.846147E02
$$ 7.222505E01, 1.803217E02
$$ 7.249678E01, 1.760341E02
$$ 7.276738E01, 1.717519E02
$$ 7.303685E01, 1.674751E02
$$ 7.330519E01, 1.632037E02
$$ 7.357239E01, 1.589377E02
$$ 7.383845E01, 1.546771E02
$$ 7.410337E01, 1.504219E02
$$ 7.436714E01, 1.461721E02
$$ 7.462976E01, 1.419277E02
$$ 7.489122E01, 1.376887E02
$$ 7.515152E01, 1.334551E02
$$ 7.541066E01, 1.292269E02
$$ 7.566863E01, 1.250041E02
$$ 7.592542E01, 1.207867E02
$$ 7.618104E01, 1.165747E02
$$ 7.643548E01, 1.123681E02
$$ 7.668873E01, 1.081669E02
$$ 7.694079E01, 1.039711E02
$$ 7.719167E01, 9.978067E01
$$ 7.744134E01, 9.559567E01
$$ 7.768981E01, 9.141607E01
$$ 7.793709E01, 8.724187E01
$$ 7.818315E01, 8.307307E01
$$ 7.842800E01, 7.890967E01
$$ 7.867163E01, 7.475167E01
$$ 7.891405E01, 7.059908E01
$$ 7.915524E01, 6.645187E01
$$ 7.939521E01, 6.231007E01
$$ 7.963395E01, 5.817368E01
$$ 7.987145E01, 5.404267E01
$$ 8.010771E01, 4.991708E01
$$ 8.034273E01, 4.579688E01
$$ 8.057651E01, 4.168207E01
$$ 8.080904E01, 3.757267E01
$$ 8.104031E01, 3.346867E01
$$ 8.127033E01, 2.937007E01
$$ 8.149909E01, 2.527687E01
$$ 8.172659E01, 2.118908E01
$$ 8.195282E01, 1.710667E01
$$ 8.217778E01, 1.302967E01
$$ 8.240147E01, 8.958075E00
$$ 8.262388E01, 4.891875E00
$$ 8.284501E01, 8.310750E-01
$$ 8.306485E01, 3.567757E02
$$ 8.328341E01, 3.527257E02
$$ 8.350068E01, 3.486811E02
$$ 8.371665E01, 3.446419E02
$$ 8.393132E01, 3.406081E02
$$ 8.414470E01, 3.365797E02
$$ 8.435677E01, 3.325567E02
$$ 8.456753E01, 3.285391E02
$$ 8.477698E01, 3.245269E02
$$ 8.498512E01, 3.205201E02
$$ 8.519194E01, 3.165187E02
$$ 8.539744E01, 3.125227E02
$$ 8.560162E01, 3.085321E02
$$ 8.580447E01, 3.045469E02
$$ 8.600599E01, 3.005671E02
$$ 8.620618E01, 2.965927E02
$$ 8.640503E01, 2.926237E02
$$ 8.660254E01, 2.886601E02
$$ 8.679871E01, 2.847019E02
$$ 8.699354E01, 2.807491E02
$$ 8.718701E01, 2.768017E02
$$ 8.737914E01, 2.728597E02
$$ 8.756991E01, 2.689231E02
$$ 8.775932E01, 2.649919E02
$$ 8.794738E01, 2.610661E02
$$ 8.813407E01, 2.571457E02
$$ 8.831939E01, 2.532307E02
$$ 8.850335E01, 2.493211E02
$$ 8.868593E01, 2.454169E02
$$ 8.886714E01, 2.415181E02
$$ 8.904697E01, 2.376247E02
$$ 8.922542E01, 2.337367E02
$$ 8.940249E01, 2.298541E02
$$ 8.957818E01, 2.259769E02
$$ 8.975247E01, 2.221051E02
$$ 8.992538E01, 2.182387E02
$$ 9.009689E01, 2.143777E02
$$ 9.026700E01, 2.105221E02
$$ 9.043572E01, 2.066719E02
$$ 9.060303E01, 2.028271E02
$$ 9.076894E01, 1.989877E02
$$ 9.093344E01, 1.951537E02
$$ 9.109653E01, 1.913251E02
$$ 9.125822E01, 1.875019E02
$$ 9.141848E01, 1.836841E02
$$ 9.157733E01, 1.798717E02
$$ 9.173476E01, 1.760647E02
$$ 9.189077E01, 1.722631E02
$$ 9.204536E01, 1.684669E02
$$ 9.219852E01, 1.646761E02
$$ 9.235024E01, 1.608907E02
$$ 9.250054E01, 1.571107E02
$$ 9.264941E01, 1.533361E02
$$ 9.279684E01, 1.495669E02
$$ 9.294283E01, 1.458031E02
$$ 9.308737E01, 1.420447E02
$$ 9.323048E01, 1.382917E02
$$ 9.337214E01, 1.345441E02
$$ 9.351236E01, 1.308019E02
$$ 9.365112E01, 1.270651E02
$$ 9.378844E01, 1.233337E02
$$ 9.392430E01, 1.196077E02
$$ 9.405870E01, 1.158871E02
$$ 9.419165E01, 1.121719E02
$$ 9.432314E01, 1.084621E02
$$ 9.445316E01, 1.047577E02
$$ 9.458172E01, 1.010587E02
$$ 9.470882E01, 9.736507E01
$$ 9.483445E01, 9.367687E01
$$ 9.495861E01, 8.999407E01
$$ 9.508129E01, 8.631668E01
$$ 9.520250E01, 8.264468E01
$$ 9.532224E01, 7.897807E01
$$ 9.544050E01, 7.531687E01
$$ 9.555728E01, 7.166107E01
$$ 9.567258E01, 6.801067E01
$$ 9.578640E01, 6.436568E01
$$ 9.589873E01, 6.072607E01
$$ 9.600957E01, 5.709187E01
$$ 9.611893E01, 5.346308E01
$$ 9.622680E01, 4.983967E01
$$ 9.633318E01, 4.622167E01
$$ 9.643806E01, 4.260907E01
$$ 9.654145E01, 3.900188E01
$$ 9.664334E01, 3.540008E01
$$ 9.674374E01, 3.180367E01
$$ 9.684263E01, 2.821267E01
$$ 9.694003E01, 2.462707E01
$$ 9.703592E01, 2.104688E01
$$ 9.713031E01, 1.747207E01
$$ 9.722319E01, 1.390267E01
$$ 9.731457E01, 1.033867E01
$$ 9.740443E01, 6.780075E00
$$ 9.749279E01, 3.226875E00
$$ 9.757964E01, 3.596791E02
$$ 9.766497E01, 3.561367E02
$$ 9.774879E01, 3.525997E02
$$ 9.783110E01, 3.490681E02
$$ 9.791189E01, 3.455419E02
$$ 9.799116E01, 3.420211E02
$$ 9.806892E01, 3.385057E02
$$ 9.814515E01, 3.349957E02
$$ 9.821986E01, 3.314911E02
$$ 9.829305E01, 3.279919E02
$$ 9.836472E01, 3.244981E02
$$ 9.843486E01, 3.210097E02
$$ 9.850348E01, 3.175267E02
$$ 9.857057E01, 3.140491E02
$$ 9.863613E01, 3.105769E02
$$ 9.870016E01, 3.071101E02
$$ 9.876267E01, 3.036487E02
$$ 9.882364E01, 3.001927E02
$$ 9.888308E01, 2.967421E02
$$ 9.894099E01, 2.932969E02
$$ 9.899737E01, 2.898571E02
$$ 9.905221E01, 2.864227E02
$$ 9.910551E01, 2.829937E02
$$ 9.915728E01, 2.795701E02
$$ 9.920752E01, 2.761519E02
$$ 9.925621E01, 2.727391E02
$$ 9.930337E01, 2.693317E02
$$ 9.934899E01, 2.659297E02
$$ 9.939307E01, 2.625331E02
$$ 9.943561E01, 2.591419E02
$$ 9.947660E01, 2.557561E02
$$ 9.951606E01, 2.523757E02
$$ 9.955397E01, 2.490007E02
$$ 9.959034E01, 2.456311E02
$$ 9.962517E01, 2.422669E02
$$ 9.965845E01, 2.389081E02
$$ 9.969019E01, 2.355547E02
$$ 9.972038E01, 2.322067E02
$$ 9.974903E01, 2.288641E02
$$ 9.977613E01, 2.255269E02
$$ 9.980168E01, 2.221951E02
$$ 9.982569E01, 2.188687E02
$$ 9.984815E01, 2.155477E02
$$ 9.986906E01, 2.122321E02
$$ 9.988843E01, 2.089219E02
$$ 9.990625E01, 2.056171E02
$$ 9.992252E01, 2.023177E02
$$ 9.993724E01, 1.990237E02
$$ 9.995041E01, 1.957351E02
$$ 9.996203E01, 1.924519E02
$$ 9.997210E01, 1.891741E02
$$ 9.998063E01, 1.859017E02
$$ 9.998760E01, 1.826347E02
$$ 9.999303E01, 1.793731E02
$$ 9.999690E01, 1.761169E02
$$ 9.999923E01, 1.728661E02
$$ 1.000000E02, 1.696207E02
$$ 1.000000E02, 1.663807E02
$$ 1.000000E02, 1.631461E02
$$ 1.000000E02, 1.599169E02
$$ 1.000000E02, 1.566931E02
$$ 1.000000E02, 1.534747E02
$$ 1.000000E02, 1.502617E02
$$ 1.000000E02, 1.470541E02
$$ 1.000000E02, 1.438519E02
$$ 1.000000E02, 1.406551E02
$$ 1.000000E02, 1.374637E02
$$ 1.000000E02, 1.342777E02
$$ 1.000000E02, 1.310971E02
$$ 1.000000E02, 1.279219E02
$$ 1.000000E02, 1.247521E02
$$ 1.000000E02, 1.215877E02
$$ 1.000000E02, 1.184287E02
$$ 1.000000E02, 1.152751E02
$$ 1.000000E02, 1.121269E02
$$ 1.000000E02, 1.089841E02
$$ 1.000000E02, 1.058467E02
$$ 1.000000E02, 1.027147E02
$$ 1.000000E02, 9.958808E01
$$ 1.000000E02, 9.646687E01
$$ 1.000000E02, 9.335107E01
$$ 1.000000E02, 9.024067E01
$$ 1.000000E02, 8.713567E01
$$ 1.000000E02, 8.403608E01
$$ 1.000000E02, 8.094188E01
$$ 1.000000E02, 7.785307E01
$$ 1.000000E02, 7.476967E01
$$ 1.000000E02, 7.169167E01
$$ 1.000000E02, 6.861908E01
$$ 1.000000E02, 6.555187E01
$$ 1.000000E02, 6.249007E01
$$ 1.000000E02, 5.943367E01
$$ 1.000000E02, 5.638267E01
$$ 1.000000E02, 5.333708E01
$$ 1.000000E02, 5.029688E01
$$ 1.000000E02, 4.726207E01
$$ 1.000000E02, 4.423267E01
$$ 1.000000E02, 4.120867E01
$$ 1.000000E02, 3.819007E01
$$ 1.000000E02, 3.517687E01
$$ 1.000000E02, 3.216908E01
$$ 1.000000E02, 2.916667E01
$$ 1.000000E02, 2.616967E01
$$ 1.000000E02, 2.317807E01
$$ 1.000000E02, 2.019187E01
$$ 1.000000E02, 1.721107E01
$$ 1.000000E02, 1.423568E01
$$ 1.000000E02, 1.126567E01
$$ 1.000000E02, 8.301075E00
$$ 1.000000E02, 5.341875E00
$$ 1.000000E02, 2.388075E00
$$ 1.000000E02, 3.594397E02
$$ 1.000000E02, 3.564967E02
$$ 1.000000E02, 3.535591E02
$$ 1.000000E02, 3.506269E02
$$ 1.000000E02, 3.477001E02
$$ 1.000000E02, 3.447787E02
$$ 1.000000E02, 3.418627E02
$$ 1.000000E02, 3.389521E02
$$ 1.000000E02, 3.360469E02
$$ 1.000000E02, 3.331471E02
$$ 1.000000E02, 3.302527E02
$$ 1.000000E02, 3.273637E02
$$ 1.000000E02, 3.244801E02
$$ 1.000000E02, 3.216019E02
$$ 1.000000E02, 3.187291E02
$$ 1.000000E02, 3.158617E02
$$ 1.000000E02, 3.129997E02
$$ 1.000000E02, 3.101431E02
$$ 1.000000E02, 3.072919E02
$$ 1.000000E02, 3.044461E02
$$ 1.000000E02, 3.016057E02
$$ 1.000000E02, 2.987707E02
$$ 1.000000E02, 2.959411E02
$$ 1.000000E02, 2.931169E02
$$ 1.000000E02, 2.902981E02
$$ 1.000000E02, 2.874847E02
$$ 1.000000E02, 2.846767E02
$$ 1.000000E02, 2.818741E02
$$ 1.000000E02, 2.790769E02
$$ 1.000000E02, 2.762851E02
$$ 1.000000E02, 2.734987E02
$$ 1.000000E02, 2.707177E02
$$ 1.000000E02, 2.679421E02
$$ 1.000000E02, 2.651719E02
$$ 1.000000E02, 2.624071E02
$$ 1.000000E02, 2.596477E02
$$ 1.000000E02, 2.568937E02
$$ 1.000000E02, 2.541451E02
$$ 1.000000E02, 2.514019E02
$$ 1.000000E02, 2.486641E02
$$ 1.000000E02, 2.459317E02
$$ 1.000000E02, 2.432047E02
$$ 1.000000E02, 2.404831E02
$$ 1.000000E02, 2.377669E02
$$ 1.000000E02, 2.350561E02
$$ 1.000000E02, 2.323507E02
$$ 1.000000E02, 2.296507E02
$$ 1.000000E02, 2.269561E02
$$ 1.000000E02, 2.242669E02
$$ 1.000000E02, 2.215831E02
$$ 1.000000E02, 2.189047E02
$$ 1.000000E02, 2.162317E02
$$ 1.000000E02, 2.135641E02
$$ 1.000000E02, 2.109019E02
$$ 1.000000E02, 2.082451E02
$$ 1.000000E02, 2.055937E02
$$ 1.000000E02, 2.029477E02
$$ 1.000000E02, 2.003071E02
$$ 1.000000E02, 1.976719E02
$$ 1.000000E02, 1.950421E02
$$ 1.000000E02, 1.924177E02
$$ 1.000000E02, 1.897987E02
$$ 1.000000E02, 1.871851E02
$$ 1.000000E02, 1.845769E02
$$ 1.000000E02, 1.819741E02
$$ 1.000000E02, 1.793767E02
$$ 1.000000E02, 1.767847E02
$$ 1.000000E02, 1.741981E02
$$ 1.000000E02, 1.716169E02
$$ 1.000000E02, 1.690411E02
$$ 1.000000E02, 1.664707E02
$$ 1.000000E02, 1.639057E02
$$ 1.000000E02, 1.613461E02
$$ 1.000000E02, 1.587919E02
$$ 1.000000E02, 1.562431E02
$$ 1.000000E02, 1.536997E02
$$ 1.000000E02, 1.511617E02
$$ 1.000000E02, 1.486291E02
$$ 1.000000E02, 1.461019E02
$$ 1.000000E02, 1.435801E02
$$ 1.000000E02, 1.410637E02
$$ 1.000000E02, 1.385527E02
$$ 1.000000E02, 1.360471E02
$$ 1.000000E02, 1.335469E02
$$ 1.000000E02, 1.310521E02
$$ 1.000000E02, 1.285627E02
$$ 1.000000E02, 1.260787E02
$$ 1.000000E02, 1.236001E02
$$ 1.000000E02, 1.211269E02
$$ 1.000000E02, 1.186591E02
$$ 1.000000E02, 1.161967E02
$$ 1.000000E02, 1.137397E02
$$ 1.000000E02, 1.112881E02
$$ 1.000000E02, 1.088419E02
$$ 1.000000E02, 1.064011E02
$$ 1.000000E02, 1.039657E02
$$ 1.000000E02, 1.015357E02
$$ 1.000000E02, 9.911107E01
$$ 1.000000E02, 9.669187E01
$$ 1.000000E02, 9.427807E01
$$ 1.000000E02, 9.186968E01
$$ 1.000000E02, 8.946667E01
$$ 1.000000E02, 8.706908E01
$$ 1.000000E02, 8.467687E01
$$ 1.000000E02, 8.229008E01
$$ 1.000000E02, 7.990868E01
$$ 1.000000E02, 7.753268E01
$$ 1.000000E02, 7.516207E01
$$ 1.000000E02, 7.279687E01
$$ 1.000000E02, 7.043707E01
$$ 1.000000E02, 6.808267E01
$$ 1.000000E02, 6.573368E01
$$ 1.000000E02, 6.339007E01
$$ 1.000000E02, 6.105188E01
$$ 1.000000E02, 5.871907E01
$$ 1.000000E02, 5.639168E01
$$ 1.000000E02, 5.406967E01
$$ 1.000000E02, 5.175308E01
$$ 1.000000E02, 4.944187E01
$$ 1.000000E02, 4.713607E01
$$ 1.000000E02, 4.483567E01
$$ 1.000000E02, 4.254067E01
$$ 1.000000E02, 4.025107E01
$$ 1.000000E02, 3.796687E01
$$ 1.000000E02, 3.568807E01
$$ 1.000000E02, 3.341467E01
$$ 1.000000E02, 3.114668E01
$$ 1.000000E02, 2.888407E01
$$ 1.000000E02, 2.662687E01
$$ 1.000000E02, 2.437507E01
$$ 1.000000E02, 2.212867E01
$$ 1.000000E02, 1.988768E01
$$ 1.000000E02, 1.765207E01
$$ 1.000000E02, 1.542188E01
$$ 1.000000E02, 1.319707E01
$$ 1.000000E02, 1.097767E01
$$ 1.000000E02, 8.763675E00
$$ 1.000000E02, 6.555075E00
$$ 1.000000E02, 4.351875E00
$$ 1.000000E02, 2.154075E00
$$ 1.000000E02, 3.599617E02
$$ 1.000000E02, 3.577747E02
$$ 1.000000E02, 3.555931E02
$$ 1.000000E02, 3.534169E02
$$ 1.000000E02, 3.512461E02
$$ 1.000000E02, 3.490807E02
$$ 1.000000E02, 3.469207E02
$$ 1.000000E02, 3.447661E02
$$ 1.000000E02, 3.426169E02
$$ 1.000000E02, 3.404731E02
$$ 1.000000E02, 3.383347E02
$$ 1.000000E02, 3.362017E02
$$ 1.000000E02, 3.340741E02
$$ 1.000000E02, 3.319519E02
$$ 1.000000E02, 3.298351E02
$$ 1.000000E02, 3.277237E02
$$ 1.000000E02, 3.256177E02
$$ 1.000000E02, 3.235171E02
$$ 1.000000E02, 3.214219E02
$$ 1.000000E02, 3.193321E02
$$ 1.000000E02, 3.172477E02
$$ 1.000000E02, 3.151687E02
$$ 1.000000E02, 3.130951E02
$$ 1.000000E02, 3.110269E02
$$ 1.000000E02, 3.089641E02
$$ 1.000000E02, 3.069067E02
$$ 1.000000E02, 3.048547E02
$$ 1.000000E02, 3.028081E02
$$ 1.000000E02, 3.007669E02
$$ 1.000000E02, 2.987311E02
$$ 1.000000E02, 2.967007E02
$$ 1.000000E02, 2.946757E02
$$ 1.000000E02, 2.926561E02
$$ 1.000000E02, 2.906419E02
$$ 1.000000E02, 2.886331E02
$$ 1.000000E02, 2.866297E02
$$ 1.000000E02, 2.846317E02
$$ 1.000000E02, 2.826391E02
$$ 1.000000E02, 2.806519E02
$$ 1.000000E02, 2.786701E02
$$ 1.000000E02, 2.766937E02
$$ 1.000000E02, 2.747227E02
$$ 1.000000E02, 2.727571E02
$$ 1.000000E02, 2.707969E02
$$ 1.000000E02, 2.688421E02
$$ 1.000000E02, 2.668927E02
$$ 1.000000E02, 2.649487E02
$$ 1.000000E02, 2.630101E02
$$ 1.000000E02, 2.610769E02
$$ 1.000000E02, 2.591491E02
$$ 1.000000E02, 2.572267E02
$$ 1.000000E02, 2.553097E02
$$ 1.000000E02, 2.533981E02
$$ 1.000000E02, 2.514919E02
$$ 1.000000E02, 2.495911E02
$$ 1.000000E02, 2.476957E02
$$ 1.000000E02, 2.458057E02
$$ 1.000000E02, 2.439211E02
$$ 1.000000E02, 2.420419E02
$$ 1.000000E02, 2.401681E02
$$ 1.000000E02, 2.382997E02
$$ 1.000000E02, 2.364367E02
$$ 1.000000E02, 2.345791E02
$$ 1.000000E02, 2.327269E02
$$ 1.000000E02, 2.308801E02
$$ 1.000000E02, 2.290387E02
$$ 1.000000E02, 2.272027E02
$$ 1.000000E02, 2.253721E02
$$ 1.000000E02, 2.235469E02
$$ 1.000000E02, 2.217271E02
$$ 1.000000E02, 2.199127E02
$$ 1.000000E02, 2.181037E02
$$ 1.000000E02, 2.163001E02
$$ 1.000000E02, 2.145019E02
$$ 1.000000E02, 2.127091E02
$$ 1.000000E02, 2.109217E02
$$ 1.000000E02, 2.091397E02
$$ 1.000000E02, 2.073631E02
$$ 1.000000E02, 2.055919E02
$$ 1.000000E02, 2.038261E02
$$ 1.000000E02, 2.020657E02
$$ 1.000000E02, 2.003107E02
$$ 1.000000E02, 1.985611E02
$$ 1.000000E02, 1.968169E02
$$ 1.000000E02, 1.950781E02
$$ 1.000000E02, 1.933447E02
$$ 1.000000E02, 1.916167E02
$$ 1.000000E02, 1.898941E02
$$ 1.000000E02, 1.881769E02
$$ 1.000000E02, 1.864651E02
$$ 1.000000E02, 1.847587E02
$$ 1.000000E02, 1.830577E02
$$ 1.000000E02, 1.813621E02
$$ 1.000000E02, 1.796719E02
$$ 1.000000E02, 1.779871E02
$$ 1.000000E02, 1.763077E02
$$ 1.000000E02, 1.746337E02
$$ 1.000000E02, 1.729651E02
$$ 1.000000E02, 1.713019E02
$$ 1.000000E02, 1.696441E02
$$ 1.000000E02, 1.679917E02
$$ 1.000000E02, 1.663447E02
$$ 1.000000E02, 1.647031E02
$$ 1.000000E02, 1.630669E02
$$ 1.000000E02, 1.614361E02
$$ 1.000000E02, 1.598107E02
$$ 1.000000E02, 1.581907E02
$$ 1.000000E02, 1.565761E02
$$ 1.000000E02, 1.549669E02
$$ 1.000000E02, 1.533631E02
$$ 1.000000E02, 1.517647E02
$$ 1.000000E02, 1.501717E02
$$ 1.000000E02, 1.485841E02
$$ 1.000000E02, 1.470019E02
$$ 1.000000E02, 1.454251E02
$$ 1.000000E02, 1.438537E02
$$ 1.000000E02, 1.422877E02
$$ 1.000000E02, 1.407271E02
$$ 1.000000E02, 1.391719E02
$$ 1.000000E02, 1.376221E02
$$ 1.000000E02, 1.360777E02
$$ 1.000000E02, 1.345387E02
$$ 1.000000E02, 1.330051E02
$$ 1.000000E02, 1.314769E02
$$ 1.000000E02, 1.299541E02
$$ 1.000000E02, 1.284367E02
$$ 1.000000E02, 1.269247E02
$$ 1.000000E02, 1.254181E02
$$ 1.000000E02, 1.239169E02
$$ 1.000000E02, 1.224211E02
$$ 1.000000E02, 1.209307E02
$$ 1.000000E02, 1.194457E02
$$ 1.000000E02, 1.179661E02
$$ 1.000000E02, 1.164919E02
$$ 1.000000E02, 1.150231E02
$$ 1.000000E02, 1.135597E02
$$ 1.000000E02, 1.121017E02
$$ 1.000000E02, 1.106491E02
$$ 1.000000E02, 1.092019E02
$$ 1.000000E02, 1.077601E02
$$ 1.000000E02, 1.063237E02
$$ 1.000000E02, 1.048927E02
$$ 1.000000E02, 1.034671E02
$$ 1.000000E02, 1.020469E02
$$ 1.000000E02, 1.006321E02
$$ 1.000000E02, 9.922267E01
$$ 1.000000E02, 9.781867E01
$$ 1.000000E02, 9.642008E01
$$ 1.000000E02, 9.502687E01
$$ 1.000000E02, 9.363907E01
$$ 1.000000E02, 9.225667E01
$$ 1.000000E02, 9.087967E01
$$ 1.000000E02, 8.950807E01
$$ 1.000000E02, 8.814188E01
$$ 1.000000E02, 8.678107E01
$$ 1.000000E02, 8.542567E01
$$ 1.000000E02, 8.407567E01
$$ 1.000000E02, 8.273107E01
$$ 1.000000E02, 8.139188E01
$$ 1.000000E02, 8.005807E01
$$ 1.000000E02, 7.872967E01
$$ 1.000000E02, 7.740667E01
$$ 1.000000E02, 7.608907E01
$$ 1.000000E02, 7.477687E01
$$ 1.000000E02, 7.347007E01
$$ 1.000000E02, 7.216868E01
$$ 1.000000E02, 7.087268E01
$$ 1.000000E02, 6.958208E01
$$ 1.000000E02, 6.829688E01
$$ 1.000000E02, 6.701708E01
$$ 1.000000E02, 6.574267E01
$$ 1.000000E02, 6.447367E01
$$ 1.000000E02, 6.321007E01
$$ 1.000000E02, 6.195188E01
$$ 1.000000E02, 6.069907E01
$$ 1.000000E02, 5.945167E01
$$ 1.000000E02, 5.820968E01
$$ 1.000000E02, 5.697307E01
$$ 1.000000E02, 5.574187E01
$$ 1.000000E02, 5.451608E01
$$ 1.000000E02, 5.329567E01
$$ 1.000000E02, 5.208067E01
$$ 1.000000E02, 5.087107E01
$$ 1.000000E02, 4.966687E01
$$ 1.000000E02, 4.846808E01
$$ 1.000000E02, 4.727468E01
$$ 1.000000E02, 4.608667E01
$$ 1.000000E02, 4.490408E01
$$ 1.000000E02, 4.372688E01
$$ 1.000000E02, 4.255507E01
$$ 1.000000E02, 4.138867E01
$$ 1.000000E02, 4.022767E01
$$ 1.000000E02, 3.907207E01
$$ 1.000000E02, 3.792187E01
$$ 1.000000E02, 3.677707E01
$$ 1.000000E02, 3.563767E01
$$ 1.000000E02, 3.450367E01
$$ 1.000000E02, 3.337507E01
$$ 1.000000E02, 3.225188E01
$$ 1.000000E02, 3.113407E01
$$ 1.000000E02, 3.002167E01
$$ 1.000000E02, 2.891467E01
$$ 1.000000E02, 2.781307E01
$$ 1.000000E02, 2.671688E01
$$ 1.000000E02, 2.562607E01
$$ 1.000000E02, 2.454067E01
$$ 1.000000E02, 2.346067E01
$$ 1.000000E02, 2.238608E01
$$ 1.000000E02, 2.131687E01
$$ 1.000000E02, 2.025307E01
$$ 1.000000E02, 1.919467E01
$$ 1.000000E02, 1.814167E01
$$ 1.000000E02, 1.709407E01
$$ 1.000000E02, 1.605187E01
$$ 1.000000E02, 1.501507E01
$$ 1.000000E02, 1.398367E01
$$ 1.000000E02, 1.295768E01
$$ 1.000000E02, 1.193707E01
$$ 1.000000E02, 1.092188E01
$$ 1.000000E02, 9.912075E00
$$ 1.000000E02, 8.907675E00
$$ 1.000000E02, 7.908675E00
$$ 1.000000E02, 6.915075E00
$$ 1.000000E02, 5.926875E00
$$ 1.000000E02, 4.944075E00
$$ 1.000000E02, 3.966675E00
$$ 1.000000E02, 2.994675E00
$$ 1.000000E02, 2.028075E00
$$ 1.000000E02, 1.066875E00
$$ 1.000000E02, 1.110750E-01
$$ 1.000000E02, 3.591607E02
$$ 1.000000E02, 3.582157E02
$$ 1.000000E02, 3.572761E02
$$ 1.000000E02, 3.563419E02
$$ 1.000000E02, 3.554131E02
$$ 1.000000E02, 3.544897E02
$$ 1.000000E02, 3.535717E02
$$ 1.000000E02, 3.526591E02
$$ 1.000000E02, 3.517519E02
$$ 1.000000E02, 3.508501E02
$$ 1.000000E02, 3.499537E02
$$ 1.000000E02, 3.490627E02
$$ 1.000000E02, 3.481771E02
$$ 1.000000E02, 3.472969E02
$$ 1.000000E02, 3.464221E02
$$ 1.000000E02, 3.455527E02
$$ 1.000000E02, 3.446887E02
$$ 1.000000E02, 3.438301E02
$$ 1.000000E02, 3.429769E02
$$ 1.000000E02, 3.421291E02
$$ 1.000000E02, 3.412867E02
$$ 1.000000E02, 3.404497E02
$$ 1.000000E02, 3.396181E02
$$ 1.000000E02, 3.387919E02
$$ 1.000000E02, 3.379711E02
$$ 1.000000E02, 3.371557E02
$$ 1.000000E02, 3.363457E02
$$ 1.000000E02, 3.355411E02
$$ 1.000000E02, 3.347419E02
$$ 1.000000E02, 3.339481E02
$$ 1.000000E02, 3.331597E02
$$ 1.000000E02, 3.323767E02
$$ 1.000000E02, 3.315991E02
$$ 1.000000E02, 3.308269E02
$$ 1.000000E02, 3.300601E02
$$ 1.000000E02, 3.292987E02
$$ 1.000000E02, 3.285427E02
$$ 1.000000E02, 3.277921E02
$$ 1.000000E02, 3.270469E02
$$ 1.000000E02, 3.263071E02
$$ 1.000000E02, 3.255727E02
$$ 1.000000E02, 3.248437E02
$$ 1.000000E02, 3.241201E02
$$ 1.000000E02, 3.234019E02
$$ 1.000000E02, 3.226891E02
$$ 1.000000E02, 3.219817E02
$$ 1.000000E02, 3.212797E02
$$ 1.000000E02, 3.205831E02
$$ 1.000000E02, 3.198919E02
$$ 1.000000E02, 3.192061E02
$$ 1.000000E02, 3.185257E02
$$ 1.000000E02, 3.178507E02
$$ 1.000000E02, 3.171811E02
$$ 1.000000E02, 3.165169E02
$$ 1.000000E02, 3.158581E02
$$ 1.000000E02, 3.152047E02
$$ 1.000000E02, 3.145567E02
$$ 1.000000E02, 3.139141E02
$$ 1.000000E02, 3.132769E02
$$ 1.000000E02, 3.126451E02
$$ 1.000000E02, 3.120187E02
$$ 1.000000E02, 3.113977E02
$$ 1.000000E02, 3.107821E02
$$ 1.000000E02, 3.101719E02
$$ 1.000000E02, 3.095671E02
$$ 1.000000E02, 3.089677E02
$$ 1.000000E02, 3.083737E02
$$ 1.000000E02, 3.077851E02
$$ 1.000000E02, 3.072019E02
$$ 1.000000E02, 3.066241E02
$$ 1.000000E02, 3.060517E02
$$ 1.000000E02, 3.054847E02
$$ 1.000000E02, 3.049231E02
$$ 1.000000E02, 3.043669E02
$$ 1.000000E02, 3.038161E02
$$ 1.000000E02, 3.032707E02
$$ 1.000000E02, 3.027307E02
$$ 1.000000E02, 3.021961E02
$$ 1.000000E02, 3.016669E02
$$ 1.000000E02, 3.011431E02
$$ 1.000000E02, 3.006247E02
$$ 1.000000E02, 3.001117E02
$$ 1.000000E02, 2.996041E02
$$ 1.000000E02, 2.991019E02
$$ 1.000000E02, 2.986051E02
$$ 1.000000E02, 2.981137E02
$$ 1.000000E02, 2.976277E02
$$ 1.000000E02, 2.971471E02
$$ 1.000000E02, 2.966719E02
$$ 1.000000E02, 2.962021E02
$$ 1.000000E02, 2.957377E02
$$ 1.000000E02, 2.952787E02
$$ 1.000000E02, 2.948251E02
$$ 1.000000E02, 2.943769E02
$$ 1.000000E02, 2.939341E02
$$ 1.000000E02, 2.934967E02
$$ 1.000000E02, 2.930647E02
$$ 1.000000E02, 2.926381E02
$$ 1.000000E02, 2.922169E02
$$ 1.000000E02, 2.918011E02
$$ 1.000000E02, 2.913907E02
$$ 1.000000E02, 2.909857E02
$$ 1.000000E02, 2.905861E02
$$ 1.000000E02, 2.901919E02
$$ 1.000000E02, 2.898031E02
$$ 1.000000E02, 2.894197E02
$$ 1.000000E02, 2.890417E02
$$ 1.000000E02, 2.886691E02
$$ 1.000000E02, 2.883019E02
$$ 1.000000E02, 2.879401E02
$$ 1.000000E02, 2.875837E02
$$ 1.000000E02, 2.872327E02
$$ 1.000000E02, 2.868871E02
$$ 1.000000E02, 2.865469E02
$$ 1.000000E02, 2.862121E02
$$ 1.000000E02, 2.858827E02
$$ 1.000000E02, 2.855587E02
$$ 1.000000E02, 2.852401E02
$$ 1.000000E02, 2.849269E02
$$ 1.000000E02, 2.846191E02
$$ 1.000000E02, 2.843167E02
$$ 1.000000E02, 2.840197E02
$$ 1.000000E02, 2.837281E02
$$ 1.000000E02, 2.834419E02
$$ 1.000000E02, 2.831611E02
$$ 1.000000E02, 2.828857E02
$$ 1.000000E02, 2.826157E02
$$ 1.000000E02, 2.823511E02
$$ 1.000000E02, 2.820919E02
$$ 1.000000E02, 2.818381E02
$$ 1.000000E02, 2.815897E02
$$ 1.000000E02, 2.813467E02
$$ 1.000000E02, 2.811091E02
$$ 1.000000E02, 2.808769E02
$$ 1.000000E02, 2.806501E02
$$ 1.000000E02, 2.804287E02
$$ 1.000000E02, 2.802127E02
$$ 1.000000E02, 2.800021E02
$$ 1.000000E02, 2.797969E02
$$ 1.000000E02, 2.795971E02
$$ 1.000000E02, 2.794027E02
$$ 1.000000E02, 2.792137E02
$$ 1.000000E02, 2.790301E02
$$ 1.000000E02, 2.788519E02
$$ 1.000000E02, 2.786791E02
$$ 1.000000E02, 2.785117E02
$$ 1.000000E02, 2.783497E02
$$ 1.000000E02, 2.781931E02
$$ 1.000000E02, 2.780419E02
$$ 1.000000E02, 2.778961E02
$$ 1.000000E02, 2.777557E02
$$ 1.000000E02, 2.776207E02
$$ 1.000000E02, 2.774911E02
$$ 1.000000E02, 2.773669E02
$$ 1.000000E02, 2.772481E02
$$ 1.000000E02, 2.771347E02
$$ 1.000000E02, 2.770267E02
$$ 1.000000E02, 2.769241E02
$$ 1.000000E02, 2.768269E02
$$ 1.000000E02, 2.767351E02
$$ 1.000000E02, 2.766487E02
$$ 1.000000E02, 2.765677E02
$$ 1.000000E02, 2.764921E02
$$ 1.000000E02, 2.764219E02
$$ 1.000000E02, 2.763571E02
$$ 1.000000E02, 2.762977E02
$$ 1.000000E02, 2.762437E02
$$ 1.000000E02, 2.761951E02
$$ 1.000000E02, 2.761519E02
$$ 1.000000E02, 2.761141E02
$$ 1.000000E02, 2.760817E02
$$ 1.000000E02, 2.760547E02
$$ 1.000000E02, 2.760331E02
$$ 1.000000E02, 2.760169E02
$$ 1.000000E02, 2.760061E02
$$ 1.000000E02, 2.760007E02
$$ 1.000000E02, 2.760007E02
$$ 1.000000E02, 2.760061E02
$$ 1.000000E02, 2.760169E02
$$ 1.000000E02, 2.760331E02
$$ 1.000000E02, 2.760547E02
$$ 1.000000E02, 2.760817E02
$$ 1.000000E02, 2.761141E02
$$ 1.000000E02, 2.761519E02
$$ 1.000000E02, 2.761951E02
$$ 1.000000E02, 2.762437E02
$$ 1.000000E02, 2.762977E02
$$ 1.000000E02, 2.763571E02
$$ 1.000000E02, 2.764219E02
$$ 1.000000E02, 2.764921E02
$$ 1.000000E02, 2.765677E02
$$ 1.000000E02, 2.766487E02
$$ 1.000000E02, 2.767351E02
$$ 1.000000E02, 2.768269E02
$$ 1.000000E02, 2.769241E02
$$ 1.000000E02, 2.770267E02
$$ 1.000000E02, 2.771347E02
$$ 1.000000E02, 2.772481E02
$$ 1.000000E02, 2.773669E02
$$ 1.000000E02, 2.774911E02
$$ 1.000000E02, 2.776207E02
$$ 1.000000E02, 2.777557E02
$$ 1.000000E02, 2.778961E02
$$ 1.000000E02, 2.780419E02
$$ 1.000000E02, 2.781931E02
$$ 1.000000E02, 2.783497E02
$$ 1.000000E02, 2.785117E02
$$ 1.000000E02, 2.786791E02
$$ 1.000000E02, 2.788519E02
$$ 1.000000E02, 2.790301E02
$$ 1.000000E02, 2.792137E02
$$ 1.000000E02, 2.794027E02
$$ 1.000000E02, 2.795971E02
$$ 1.000000E02, 2.797969E02
$$ 1.000000E02, 2.800021E02
$$ 1.000000E02, 2.802127E02
$$ 1.000000E02, 2.804287E02
$$ 1.000000E02, 2.806501E02
$$ 1.000000E02, 2.808769E02
$$ 1.000000E02, 2.811091E02
$$ 1.000000E02, 2.813467E02
$$ 1.000000E02, 2.815897E02
$$ 1.000000E02, 2.818381E02
$$ 1.000000E02, 2.820919E02
$$ 1.000000E02, 2.823511E02
$$ 1.000000E02, 2.826157E02
$$ 1.000000E02, 2.828857E02
$$ 1.000000E02, 2.831611E02
$$ 1.000000E02, 2.834419E02
$$ 1.000000E02, 2.837281E02
$$ 1.000000E02, 2.840197E02
$$ 1.000000E02, 2.843167E02
$$ 1.000000E02, 2.846191E02
$$ 1.000000E02, 2.849269E02
$$ 1.000000E02, 2.852401E02
$$ 1.000000E02, 2.855587E02
$$ 1.000000E02, 2.858827E02
$$ 1.000000E02, 2.862121E02
$$ 1.000000E02, 2.865469E02
$$ 1.000000E02, 2.868871E02
$$ 1.000000E02, 2.872327E02
$$ 1.000000E02, 2.875837E02
$$ 1.000000E02, 2.879401E02
$$ 1.000000E02, 2.883019E02
$$ 1.000000E02, 2.886691E02
$$ 1.000000E02, 2.890417E02
$$ 1.000000E02, 2.894197E02
$$ 1.000000E02, 2.898031E02
$$ 1.000000E02, 2.901919E02
$$ 1.000000E02, 2.905861E02
$$ 1.000000E02, 2.909857E02
$$ 1.000000E02, 2.913907E02
$$ 1.000000E02, 2.918011E02
$$ 1.000000E02, 2.922169E02
$$ 1.000000E02, 2.926381E02
$$ 1.000000E02, 2.930647E02
$$ 1.000000E02, 2.934967E02
$$ 1.000000E02, 2.939341E02
$$ 1.000000E02, 2.943769E02
$$ 1.000000E02, 2.948251E02
$$ 1.000000E02, 2.952787E02
$$ 1.000000E02, 2.957377E02
$$ 1.000000E02, 2.962021E02
$$ 1.000000E02, 2.966719E02
$$ 1.000000E02, 2.971471E02
$$ 1.000000E02, 2.976277E02
$$ 1.000000E02, 2.981137E02
$$ 1.000000E02, 2.986051E02
$$ 1.000000E02, 2.991019E02
$$ 1.000000E02, 2.996041E02
$$ 1.000000E02, 3.001117E02
$$ 1.000000E02, 3.006247E02
$$ 1.000000E02, 3.011431E02
$$ 1.000000E02, 3.016669E02
$$ 1.000000E02, 3.021961E02
$$ 1.000000E02, 3.027307E02
$$ 1.000000E02, 3.032707E02
$$ 1.000000E02, 3.038161E02
$$ 1.000000E02, 3.043669E02
$$ 1.000000E02, 3.049231E02
$$ 1.000000E02, 3.054847E02
$$ 1.000000E02, 3.060517E02
$$ 1.000000E02, 3.066241E02
$$ 1.000000E02, 3.072019E02
$$ 1.000000E02, 3.077851E02
$$ 1.000000E02, 3.083737E02
$$ 1.000000E02, 3.089677E02
$$ 1.000000E02, 3.095671E02
$$ 1.000000E02, 3.101719E02
$$ 1.000000E02, 3.107821E02
$$ 1.000000E02, 3.113977E02
$$ 1.000000E02, 3.120187E02
$$ 1.000000E02, 3.126451E02
$$ 1.000000E02, 3.132769E02
$$ 1.000000E02, 3.139141E02
$$ 1.000000E02, 3.145567E02
$$ 1.000000E02, 3.152047E02
$$ 1.000000E02, 3.158581E02
$$ 1.000000E02, 3.165169E02
$$ 1.000000E02, 3.171811E02
$$ 1.000000E02, 3.178507E02
$$ 1.000000E02, 3.185257E02
$$ 1.000000E02, 3.192061E02
$$ 1.000000E02, 3.198919E02
$$ 1.000000E02, 3.205831E02
$$ 1.000000E02, 3.212797E02
$$ 1.000000E02, 3.219817E02
$$ 1.000000E02, 3.226891E02
$$ 1.000000E02, 3.234019E02
$$ 1.000000E02, 3.241201E02
$$ 1.000000E02, 3.248437E02
$$ 1.000000E02, 3.255727E02
$$ 1.000000E02, 3.263071E02
$$ 1.000000E02, 3.270469E02
$$ 1.000000E02, 3.277921E02
$$ 1.000000E02, 3.285427E02
$$ 1.000000E02, 3.292987E02
$$ 1.000000E02, 3.300601E02
$$ 1.000000E02, 3.308269E02
$$ 1.000000E02, 3.315991E02
$$ 1.000000E02, 3.323767E02
$$ 1.000000E02, 3.331597E02
$$ 1.000000E02, 3.339481E02
$$ 1.000000E02, 3.347419E02
$$ 1.000000E02, 3.355411E02
$$ 1.000000E02, 3.363457E02
$$ 1.000000E02, 3.371557E02
$$ 1.000000E02, 3.379711E02
$$ 1.000000E02, 3.387919E02
$$ 1.000000E02, 3.396181E02
$$ 1.000000E02, 3.404497E02
$$ 1.000000E02, 3.412867E02
$$ 1.000000E02, 3.421291E02
$$ 1.000000E02, 3.429769E02
$$ 1.000000E02, 3.438301E02
$$ 1.000000E02, 3.446887E02
$$ 1.000000E02, 3.455527E02
$$ 1.000000E02, 3.464221E02
$$ 1.000000E02, 3.472969E02
$$ 1.000000E02, 3.481771E02
$$ 1.000000E02, 3.490627E02
$$ 1.000000E02, 3.499537E02
$$ 1.000000E02, 3.508501E02
$$ 1.000000E02, 3.517519E02
$$ 1.000000E02, 3.526591E02
$$ 1.000000E02, 3.535717E02
$$ 1.000000E02, 3.544897E02
$$ 1.000000E02, 3.554131E02
$$ 1.000000E02, 3.563419E02
$$ 1.000000E02, 3.572761E02
$$ 1.000000E02, 3.582157E02
$$ 1.000000E02, 3.591607E02
$$ 1.000000E02, 1.110750E-01
$$ 1.000000E02, 1.066875E00
$$ 1.000000E02, 2.028075E00
$$ 1.000000E02, 2.994675E00
$$ 1.000000E02, 3.966675E00
$$ 1.000000E02, 4.944075E00
$$ 1.000000E02, 5.926875E00
$$ 1.000000E02, 6.915075E00
$$ 1.000000E02, 7.908675E00
$$ 1.000000E02, 8.907675E00
$$ 1.000000E02, 9.912075E00
$$ 1.000000E02, 1.092188E01
$$ 1.000000E02, 1.193707E01
$$ 1.000000E02, 1.295768E01
$$ 1.000000E02, 1.398367E01
$$ 1.000000E02, 1.501507E01
$$ 1.000000E02, 1.605187E01
$$ 1.000000E02, 1.709407E01
$$ 1.000000E02, 1.814167E01
$$ 1.000000E02, 1.919467E01
$$ 1.000000E02, 2.025307E01
$$ 1.000000E02, 2.131687E01
$$ 1.000000E02, 2.238608E01
$$ 1.000000E02, 2.346067E01
$$ 1.000000E02, 2.454067E01
$$ 1.000000E02, 2.562607E01
$$ 1.000000E02, 2.671688E01
$$ 1.000000E02, 2.781307E01
$$ 1.000000E02, 2.891467E01
$$ 1.000000E02, 3.002167E01
$$ 1.000000E02, 3.113407E01
$$ 1.000000E02, 3.225188E01
$$ 1.000000E02, 3.337507E01
$$ 1.000000E02, 3.450367E01
$$ 1.000000E02, 3.563767E01
$$ 1.000000E02, 3.677707E01
$$ 1.000000E02, 3.792187E01
$$ 1.000000E02, 3.907207E01
$$ 1.000000E02, 4.022767E01
$$ 1.000000E02, 4.138867E01
$$ 1.000000E02, 4.255507E01
$$ 1.000000E02, 4.372688E01
$$ 1.000000E02, 4.490408E01
$$ 1.000000E02, 4.608667E01
$$ 1.000000E02, 4.727468E01
$$ 1.000000E02, 4.846808E01
$$ 1.000000E02, 4.966687E01
$$ 1.000000E02, 5.087107E01
$$ 1.000000E02, 5.208067E01
$$ 1.000000E02, 5.329567E01
$$ 1.000000E02, 5.451608E01
$$ 1.000000E02, 5.574187E01
$$ 1.000000E02, 5.697307E01
$$ 1.000000E02, 5.820968E01
$$ 1.000000E02, 5.945167E01
$$ 1.000000E02, 6.069907E01
$$ 1.000000E02, 6.195188E01
$$ 1.000000E02, 6.321007E01
$$ 1.000000E02, 6.447367E01
$$ 1.000000E02, 6.574267E01
$$ 1.000000E02, 6.701708E01
$$ 1.000000E02, 6.829688E01
$$ 1.000000E02, 6.958208E01
$$ 1.000000E02, 7.087268E01
$$ 1.000000E02, 7.216868E01
$$ 1.000000E02, 7.347007E01
$$ 1.000000E02, 7.477687E01
$$ 1.000000E02, 7.608907E01
$$ 1.000000E02, 7.740667E01
$$ 1.000000E02, 7.872967E01
$$ 1.000000E02, 8.005807E01
$$ 1.000000E02, 8.139188E01
$$ 1.000000E02, 8.273107E01
$$ 1.000000E02, 8.407567E01
$$ 1.000000E02, 8.542567E01
$$ 1.000000E02, 8.678107E01
$$ 1.000000E02, 8.814188E01
$$ 1.000000E02, 8.950807E01
$$ 1.000000E02, 9.087967E01
$$ 1.000000E02, 9.225667E01
$$ 1.000000E02, 9.363907E01
$$ 1.000000E02, 9.502687E01
$$ 1.000000E02, 9.642008E01
$$ 1.000000E02, 9.781867E01
$$ 1.000000E02, 9.922267E01
$$ 1.000000E02, 1.006321E02
$$ 1.000000E02, 1.020469E02
$$ 1.000000E02, 1.034671E02
$$ 1.000000E02, 1.048927E02
$$ 1.000000E02, 1.063237E02
$$ 1.000000E02, 1.077601E02
$$ 1.000000E02, 1.092019E02
$$ 1.000000E02, 1.106491E02
$$ 1.000000E02, 1.121017E02
$$ 1.000000E02, 1.135597E02
$$ 1.000000E02, 1.150231E02
$$ 1.000000E02, 1.164919E02
$$ 1.000000E02, 1.179661E02
$$ 1.000000E02, 1.194457E02
$$ 1.000000E02, 1.209307E02
$$ 1.000000E02, 1.224211E02
$$ 1.000000E02, 1.239169E02
$$ 1.000000E02, 1.254181E02
$$ 1.000000E02, 1.269247E02
$$ 1.000000E02, 1.284367E02
$$ 1.000000E02, 1.299541E02
$$ 1.000000E02, 1.314769E02
$$ 1.000000E02, 1.330051E02
$$ 1.000000E02, 1.345387E02
$$ 1.000000E02, 1.360777E02
$$ 1.000000E02, 1.376221E02
$$ 1.000000E02, 1.391719E02
$$ 1.000000E02, 1.407271E02
$$ 1.000000E02, 1.422877E02
$$ 1.000000E02, 1.438537E02
$$ 1.000000E02, 1.454251E02
$$ 1.000000E02, 1.470019E02
$$ 1.000000E02, 1.485841E02
$$ 1.000000E02, 1.501717E02
$$ 1.000000E02, 1.517647E02
$$ 1.000000E02, 1.533631E02
$$ 1.000000E02, 1.549669E02
$$ 1.000000E02, 1.565761E02
$$ 1.000000E02, 1.581907E02
$$ 1.000000E02, 1.598107E02
$$ 1.000000E02, 1.614361E02
$$ 1.000000E02, 1.630669E02
$$ 1.000000E02, 1.647031E02
$$ 1.000000E02, 1.663447E02
$$ 1.000000E02, 1.679917E02
$$ 1.000000E02, 1.696441E02
$$ 1.000000E02, 1.713019E02
$$ 1.000000E02, 1.729651E02
$$ 1.000000E02, 1.746337E02
$$ 1.000000E02, 1.763077E02
$$ 1.000000E02, 1.779871E02
$$ 1.000000E02, 1.796719E02
$$ 1.000000E02, 1.813621E02
$$ 1.000000E02, 1.830577E02
$$ 1.000000E02, 1.847587E02
$$ 1.000000E02, 1.864651E02
$$ 1.000000E02, 1.881769E02
$$ 1.000000E02, 1.898941E02
$$ 1.000000E02, 1.916167E02
$$ 1.000000E02, 1.933447E02
$$ 1.000000E02, 1.950781E02
$$ 1.000000E02, 1.968169E02
$$ 1.000000E02, 1.985611E02
$$ 1.000000E02, 2.003107E02
$$ 1.000000E02, 2.020657E02
$$ 1.000000E02, 2.038261E02
$$ 1.000000E02, 2.055919E02
$$ 1.000000E02, 2.073631E02
$$ 1.000000E02, 2.091397E02
$$ 1.000000E02, 2.109217E02
$$ 1.000000E02, 2.127091E02
$$ 1.000000E02, 2.145019E02
$$ 1.000000E02, 2.163001E02
$$ 1.000000E02, 2.181037E02
$$ 1.000000E02, 2.199127E02
$$ 1.000000E02, 2.217271E02
$$ 1.000000E02, 2.235469E02
$$ 1.000000E02, 2.253721E02
$$ 1.000000E02, 2.272027E02
$$ 1.000000E02, 2.290387E02
$$ 1.000000E02, 2.308801E02
$$ 1.000000E02, 2.327269E02
$$ 1.000000E02, 2.345791E02
$$ 1.000000E02, 2.364367E02
$$ 1.000000E02, 2.382997E02
$$ 1.000000E02, 2.401681E02
$$ 1.000000E02, 2.420419E02
$$ 1.000000E02, 2.439211E02
$$ 1.000000E02, 2.458057E02
$$ 1.000000E02, 2.476957E02
$$ 1.000000E02, 2.495911E02
$$ 1.000000E02, 2.514919E02
$$ 1.000000E02, 2.533981E02
$$ 1.000000E02, 2.553097E02
$$ 1.000000E02, 2.572267E02
$$ 1.000000E02, 2.591491E02
$$ 1.000000E02, 2.610769E02
$$ 1.000000E02, 2.630101E02
$$ 1.000000E02, 2.649487E02
$$ 1.000000E02, 2.668927E02
$$ 1.000000E02, 2.688421E02
$$ 1.000000E02, 2.707969E02
$$ 1.000000E02, 2.727571E02
$$ 1.000000E02, 2.747227E02
$$ 1.000000E02, 2.766937E02
[...]
3490D10112p4369o5363n1838l4311j5548M96R451P914l751k1536m0155n4412E541
3476e5874n8371n1693l6676j1221J9276M6116O2788a9812C4731L1300J723k6658
3464D1096e805n5216n2166m1261k5607o572J4665L6011N5127a0616F9296Q3381
3452A52677Q0137O9128M9844K5965N674l463M17J3474K9516M2825M9399M6617
3440E62210L3343J1406j4211l6423m6755l9063j5872J1802L3209M5055M9536M7944
3428F42181L9368K4534P433p555j8447k4737k5474k0482j2024l133M019O765J671
3415F14119j2183l1050m9234o2688o9422o8302n7819l6701r075J3104J9204J0508
3403B60461k370j0252j0867p817q317j8877l8939n9480C3000c6628o1561n1945
3391a50134m2690l3308k3687j4231n155L732J3312K4591L7920N3670f3714B9518
3378A44478J34086J45604J45612J34292J15282R0942N8981J6557l2743p8867j11769
3367G62455j26932j25617j11703q9834o4735m0306j8935j311J2100K0065K2074
3356B37321J9456J4827J1421J1830J6915K5895L6601M6215N1782N0270M0252K4078
3344E86863O582r140k3401l7586n2594o8944q5370r8154j04070A0748h8060r0663
3332a78723p6104n2905k3294P507L5135N7994P6591f1538D4514J16603J19784
3321B80901J12842R7483P7297N3650K5562o151l5605n4995o0817n4939m2020k8296
3309C64912j9543j7521j9371k0530j7662j0495p05J2822L4825O6801J01565J27013
3297F02111J34252J21554R3450N8148K4272k392j9782k7663k7243k3074k1838
3286I11795k7479l8262m8827n5513n9332o3631o9795p5587p7872p6161p2060o5782
3274A81494n5414l9818k1138m601M886O737M759L861O889J3721K3039L3332M1564
3261A99311M4857M4958M6943N2860N9215N9821M9655K8552L015j8327l1901m0167
3249D98792m5783m6349l6295j3948J4799M0466N6879O3991O4385N8736M6877L1095
3237G33645J5112N28j3159k4626l0028k7529j9764j2043j0281j9050l8660o3037
3225D91108q2429q9724q2836o2863l3373J42L2473N9827P8604Q5371Q0349O8822
3213E45471N6323M3804K9623J5290N516J441k244j2048l0673n6521q3757j02640
3201D09585j04241q6855n6761k3047P535L1387M6246N0288M2865K5493J315k6251
3189C17559n3141p3441q1083C6805a3787j8491J5245B4990N6024N5466M2029J9532
3177A98041p303l3686n5929B9646d7587p0098n1105k6754l760J5576L1999M5646
3165a06083e1236F312N2904M1714K6323J0238k870j1141j5794j9061k0500j7175
3153E0950q856m97L389N089J1249K4459L9642M8561M6379L4549J8973O099o06
3140B79380k405m036j0625k4021m0242n1926n4404D2861B223c3166l5244l7592
3128a06002l8169l5328l0611k5673k0635j4900p172L779J7031K9232L6891L8654
3116a52903L5424K9907K6628L0193A2087O3955R0052J14092J27603J24640J03757
3105F36186O8936K8190j1555m7700p9790j06107j23789j30925A06930c316q4852
3094h8168n6899l3038j6137m242Q131K5816M8570d4506D4317R7415R7889R4614
3082C34235R2964R5231R9569J02708J02323R6797Q4259O3776L7269Q734j7927
3071A099938m0063n6293o5569o6694n9630m6584l0950j5439j586R648J8000K3922
3059G68700K8366L2156L3484K7271R519j8726n1871q2326j03381j12075j10302
3048D20815j02983r4414q6368E7379a7243o8378n5375l3846j0429M338N260k985
3036a78658j1211j4446j3969j3084j3045j2046o771N333K3904M4325O0068f2632
3023B171N6961M8230L9870K7575O643k1221m6980E3169a952l3709k107f396E2648
3009A29811Q6662R0329Q9249Q1043O1964L1877l047l3096n0989n6032n3122m7874
2997C26775m2272l4656k3234q284P893K1543K9275K9853K3928J3743M428K738
2985C51730J1396K6018L9635M9575N8365O8283P6219P4850N9453L2002j602l5454
2973H10470o4456q4693r4378r3690q5256p4580o6115n9359n0757l6749j4739J4417
2961A00115M3492O1358O0938M5367K6068J4531J5187K4432L4663L9383L6461K7903
2949E29898J6890N764m144j2145j6573j4666p465k557p432k2278m1659n9510p1019
2936B93104p3790o9474o2379C2606a2206k9463j1093L349Q747O187O08n089j1626
2923e0586j9220k5280k6947k2738j1284P974L2018N4745H958P5436P0358N7431
2911B12183M0678K5282J4817R031N417J327n491j5381k4785k7919k1552q423L623
2898B08807O777j818j9895m2849o4886G470g0633o3411m1749k2748j3200j2641
2886b24382j3324p150P763K8329N0792P1754A138R3152Q5757O5863L9723J6985
2874C02618O068R660K3459L8908M7468M4047K8356L861k4265m9583o4758o5221
2862C00618n2699l4545k0325j6623k3113l4200m3719B7422a8666l9080k9028j8114
2850a04888p619J511O753M087q616k8463m8360o0916o1453m9085k7014k123J7523
2837c68663K7011K6802K0347J1309M157L312Q901J6791K4385L3221M5002N7698
2825h9727b3035D5123O1251M9349L9934M0509N2460O9404Q2584Q7526Q4651P4480
2813F87271N4797K4055j3116m6002o5257o9746o5208n7822n0082m1447l1416k1662
2801C04365j5925j8389l1122n1306p0744C7393c4208m8979j9480R142L2946a0591
2788D6628N0982L0768J450k9543D3322c5884r5513j03137r7591p5893m1775p324
2776d57117J3318J2264r259m2315p2627q4814o8242k1497M5615J13244J59127
2765d12303J70976h8768B8508P7911M2653J7156O064J0437K5220M1955N3718N7184
2753C60806N2992M5604M0666M0477M1955L8390K3210n090m0159p2168r5327j09459
2741C21897j16402H8414b2138r5358p2870m7546k2515K201K6372M7301O0764f0705
2728f473C2930K5387J5720J0852J0147J1097R363J577j2908l1734B3395c3908
2715h6156l5330j1810J2154L1269M1883e507B9178K4311J9366K2959K9304L0149
2703A55267K3311J2570R09j3183l1994n2556B8575c3433l8455k000L4440B0471
2690I0872O8662O1439N4525M9927M7994M9031N1540N1497M5134L2972J9325P164
2678F30082l739j3803k1533k4015j8908o820R111K5963M1880N4628O1275N9609
2666G93730M9831L5080K0228J0460J0099K0299L6363M8374M6842K8757j489l5363
2654A063211o3164p5683o8153m4984j8517j805j723j5221l0965l8408l6626l2538
2642F35424l1597l2874l2291k8228k3517k3215l1327m7463o5116p4738o8943m5985
2630A30130j0649K8302O3025Q9154J04718J08671J00820Q2397N6531K8192K446
2619G83737j8310l4732m7905n8100o5472o9255o8123o3080n6893n0108m0096k5420
2607A86243j1051o261j5921l6413E7118b0071q4750q1499o9578n1230k8086k950
2595c38164J9536L5723M5668N1772N5590N6933a7840C2298M2668L2964K1775J2127
2583A41832Q152J1788K1067L0269L2006K2252M144j5152l0221l8098l6395k4792
2571A26852p793P148J5698J9706K3347K6800K4940J3051o808k6031l5668l2067
2559A49175j7944o90J1079J2699N964l112p779l484R774K6702L9356M1405K9805
2546B92950N338k5791n3852p1923F7649i273o6464n0147l3173k0345j3446j1123
2534b03971j0565j0162r949r771q735n837Q05J4151L5448O1669f0615D2102J07591
2521A49693J01794Q9229P5052O2310N0478L8999K9396K2430J6358Q806k081j7447
2509F25017l5840n2289o1454o0751n0254l1613q050J4600K9190L1920K4976J4461
2497D39913O545N203J1757K4029L6302M2327L8691K6163R435m533j0164p004L56
2484F19020N896N523j287j0961j7866j8593j4180q829p210j2190k3287l5786m3066
2471D37184m2126l5667k8049k0533j1388J28J1062J6287J2343K31j5076k9056
2459B95340m1448n4404o7230E7354a5272o0504m3527k8594k1275k3159k9668l1007
2447b53006j9294M345L1429N3205O4425e5740d948B7547J4978L138r18K175Q499
2434E5419J2597J1701Q062O536R279J3365J4684J3109J2323J5325K2084L1683
2422B26167M4485O0667P7392Q9306R2891Q9318Q2144P3212O2106M9104L6226K5741
2410A008759J9446J8356K1798K7445L2862L6881L9505M0180L6482K5711Q701r091
2398A307035k2345l1090l9087m8376n7989o7056p6793q7770r6457r7106q6913
2387E96053o7499m2006j3284J4733L6283M6014M1703K5241J635k3918m7627o5708
2375E01620p4907p5597p1012o2442m8332k8740q150O528J0339M278m700q784m339
2362A35762O961J9904K8462K8191J8080J158j6824l0718l9887m8522D1850c3724
2349a21306r0601q0428n5794k0151J7662M7142O2163O3632N6684M6367L5898a2076
2336F107R643K320m26M454J7462L4947M9923N5505M7961K6878o056m6304q4995
2323A17419F025a12643j07121q2025m9255j3810J9296M6277O6531Q1268f0678
2311C4194R4773R2106Q5067O9267M3577J2777j5984l6566m5005m1921l3451k7387
2299B31447k8962l9526n5267D0945b3620m6959j9910Q103K9860a1190C1133L5421
2287F6554K5640J9886K2759L1964L9882M0223L3232K5199K2242K4559K7907K9253
2275D09300K9078K9641L2338L5968L8139L8806M0334M4058M9684N7731O8876Q0837
2263I54790Q8545Q7128P4763N4717L3762J6780L649q106j9281k8853l6193m0832
2251A180869m1510l7978l2453k7365k2116j3589k60J4200K2007J7062j1k1595
2239A037261l7963m4852m6191m8615n5936o7771p8010p6414n7890k9889p358J91
2227D86563m280j0574j1622q347o244q902j5329k2772k9902l7271m6121n6227
2215B28972o4546o6949C5781a6181m4061m1207m0069l4605k1827l303J7529L7344
2203a46380N1550d0077E297K8161J1756M389R594K3575L7500M4037M1845L4568
2191B40722K7393K3603K2763K2434K0939J7951J3762Q980L684l894j6275l3634
2179C48428n1930o4012o3882n1464l2896j5614l539M135J0553J7461K3993K9128
2167A50361L3942L9763M5182M6303L9704K6078J1408K956L350R129J4737J7107
2155D40020J6426J3848J0662R131J1695J9348L0989M2411M7158M1537K8264J4171
2143G25660N510N073J1747K1536K9216L0706K5192J4194j477k1535m2453n6901
2131G46468n9220n0330l6751k6895k7208l8898n8709q2351j06388j28000a1582
2119a57849j31791j01426o4404l1718j0253j100j48k06N169J8599L8278N9165
2107c77684P4486P7357O4327L8508P520k1319m3049n5986o3196o9346p3827p1226
2095e13435n9187m1640k5422j5770j3664j6507k0585k3318k4662k6093k7649k6772
2083h34704k0496q564N285J4488J3036o48k2120m2451n1266m0612j0130L0091
2071i68091O4276P9795P3661N4323L5542K5730K4342K7481L2785L7487L4974J7953
2059d59742j3572m9350p5548q4342p7033n9515l5908n798L2813P6958J16311J40332
2047d94394J46359J38957h4574B2328Q5964O0042L0147N90k3557l9125m5574m3902
2035D6913A1021a3728j6033j5533k4281l6898m5351m3972l2256j4928Q33J0653
2023b31494J6339K2875L1809L8797L8298L0015K0786a2594A9163N0990O6719P0980
2011B07852O5045N5383M5129L3518K1088J0824N109L727M772O622Q617J0632J2432
1998D90750J2241O065r727l4776o3313q5933r5002q9746E5598b02l6104j9793
1986e6099j0240p041m446M744K3241a600G3099R6457J05989R8370P6173M8857
1974D98945K7440J9106K4340L6948M7242M6917L2458O112k4995n1321o4878o3772
1962E34542n3263m1591l5419l8107m9165o4212p6603q0963A8759d7810n6138m8884
1950a52832m5959m5693m5443m4249m3053m1906l8132k8053r826J5482M4155P0279
1938c65230Q7745R3478Q8084b1702C4522L9287K6214J5536L838j0388k5873m0548
1926D2588i614n7689n3620l8442j4676J0988L2161M6108c4015H918K3075j700
1914C0293G720b7870m2821m7920n1306m9827m0110k2106q79J5888K3991K5497
1902b17463K4365K1314J4296K479j1445k2285k5288j9032o597N945J2372R535
1890b11804L42q156j1030q694m857k109J342R738K2990L3321L1740J6857m702
1877a35022k4459l6930m1284m1234m2545m8752n8248o5144o2712m6753j7222K2283
1865e98022O5827J06108J34818J44027a7481G7366M8843N494k2669l0981k4597
1854E3456j3140m133j149m475j1026C738a1664r238K384A45L7486N6017P2230
1841A65878Q5295R4063R6314R0873P9435O4320M5162K0758n291k4177k8589j7997
1829F66044K191K4337M0322M1499K1881j6218o0740r6175j12864j11127r8122
1818C01028q1314o4084m6963l0787j6488m485L594N227P27n227p291l767L095
1805E3265R757J3718J4085J0496L038n406q959l280J0572K6891L8958M2239L5516
1792B40890K1082M017j0584j9877k3265k1788j7669j3674j2294j4418j8343k0389
1780I3688j6908o808O962J9144K6210K8148K7024K6108K9104L7064M6081M9866
1768C65683M5354L4662K1611Q471m343j6891k7248l1058k4996r755J1465L5962
1756D08917O1779Q5947J04027J11006J02522P7314L9480k759m1046o9492q4990
1745G92705q7909q2838p6363p2981p2832p2712o9621o4008n9132n7013B1243c1529
1732g6190l0178q307J8281M1558b022D6980L5095K0834J4119J6406K3927L1944
1720A89305L7220L8879L8608L9486M3847N0898N5628N1704L6371J1926j6587m3956
1708E33329o6430q2490r1926r4405q9989B8057c8593n2184l8584k5337q658J4371
1696a48985M0487d7567B0798O2162M6637K7249R462k253o731o949o257l623M740
1683A45235J8558L1443L6666L2273K0593N888p136j4524j4542q973k558j84l874
1670B38865j1323j8017k2025k5430l0862l8753D5049h171n2217m3750l1649k0476
1658a56263j2241p290n292l847J496J3780L1361M8967b7689C9014O2897M9453
1646A51364K6545l571l5251o0248F993f1616n4226l4005j2044R075K7791M3652
1634h1373b4302D3577P5311P9588Q1589Q1829Q1085Q0326P9117P5638O8826N9940
1622H06826N1959M5861L6614J6055j7400n3581p7928q3910p6820o6607n9437n5649
1610D65983n2639m8126m2143l7626l7574m0794m1977l5990k2402o004P658J6274
1598A24640K0176J9611J4989R672R449J8101L4770N5802P6556R0624R1372P7820
1586F43582N7565M0915L2466K9903K8814K5117J4665m565k9392n2257o6048o7781
1574F52984n7380l6247r213J5441L0744L5271L2230K5499J7156P822j592r091
1562G03624j2931j3681j4578j8799k6136l3474l8335m0137l8317l2436k4878k0547
1550C89375k2093k6713k8922k5497j6865n505N251J2534J6023J7851K0152K3443
1538C59034K6784K8526K6080J5463o027l6047o8180r5908j15161H790a21862j31508
1526b53370j26210j12113r0319o4497l7338j0679J2682K9688L9574M5940N4489
1515e12153O6256P5485P7106P3223O9269O6915b0731C3321L7679J5084j0193l1932
1503D3959B007c2684j1714J8460A8501N8174N8779N0068L5444J6584l301j8112
1491B16137k2700j5708O59K0914L8551N0360N7341O1576O3465O1832N6065M6604
1479F35096L2861J3421r942l0480m0931l9223k9263j6988o621o23j492j1522k9761
1466D64532n0463o6016p1286o5650n2437l6739k2778j2420n532p85L320O955R779
1453A00480J4006K3465L8114N1879N6873M9843L5859K4535K1150K2906K4575K5087
1441D88772K6584K9565L1813L1066K7081K1213J3994M037r295k2286k8074k3090
1429E91380j0623K238Q802M617j1031l3183n3297o6624p5482q3070q7332q3628
1417A02767C0613b9872n6623o0097o2260n3567k9286Q358N0902Q7665c3605H6055
1404B01749J04235R0343P6101O0180M1948K4594J1567J475j0152k5047m0815n4135
1392D82043o2808o4926n9132m7410l5076k5857j9076j2611n853N65N157O101L864
1379A64981J815J925J827k366j2806k9429m9023A2852e3189n1866k6200K531K7555
1366a01169M5820H11N8078N2577M1695K7675J3608K446n570j3123k3055l5484
1354A19658m7151A8849c4002m6039l6220k6591k0130j7013j2633j677J6536L8694
1342a39075O1401D622R8966J09357J12601J08228R6419P9933O3369M8636L2772
1331G54903J1981j3742m1379o8552r3434j11101j14091r8534o7814k9352R951
1320A38836M4003O5332O6395M6330J4732j4463l2551l9645m1196m2187m3423m2157
1308A20006l6065k5817j4105l351N919J4303J9916J6781l44l0010C562h5486r5102
1295a80588p8229m5189r147J7999L0840L0653K3348J6858J6842K3405L3113M3322
1283g6773b4273C3957N8263N3118M5825L9389L4435K8667J9992J0424M645M830
1271C33545Q803J2267J0823J170j5998l3577m1860l5785j8038K193J3018O768
1259B43329j5093m3366o6343D2132c1719o5453n9660o1098o6981o9807o5247n6452
1247d76417n0498n1971n8942o3372n6461l5605o670K1021M1502N2747N2979M1343
1235e90344K1471K17j6960k7259k8167j6764O325L3750N6022O9738P8687Q6960
1223c26324R3338R2915e7728D772L7305J1024j3137F967c9463n1039m6409l5842
1211a72753k4621j6755j2834r884l086J0708K9610M7422N7902c6376A1938L4099
1199D6037K1818J4961J2780J1755P180m142k1761m1853a2076o7452o4564n1071
1187a95163l2293j5220m193K57J22o45K757J3600L1339N0263O1443b8811A5210
1173C8087K235j1561j3988o175M593J0951J0989O963J492l068l543L682K0951
1160F1608M7203P6401R9303J09464J07334R7078Q1274O0858L8033J6014l211j8677
1148G72682k9108l3740l4215l4454l7907m4923n2754n7875n8337n4887n0305m6811
1136B37366m4127m0084l3031k4490j9279k2295A9395c2582o6015o9213n8678l6788
1124b63276r120J7253L5413M2291M1336L9575M1482i532C6290L7493K0345j802
1112I2326k3617B8705a8949m5414l3521j4439N608J8831K1570J7670J5407a2171
1099B3219N4010O9495P4554O5149M1152N570l5435p3483j01572F469a09315j00270
1087b09585p3190m1707j2326J2266L1397M3431M6409M0489K8087J2443k325j1295
1075a35906j1968p208k743j606j796N73O468J3629J9819K3910K5234K3836K0865
1062b6893h840G657J5847J4519J0790M066m731j3517A4228a1399l1487l9155m5570
1049a27611m4706l2825j1345J5394M2453O4804a5994F1762O3079L6986O420k1966
1037A46281m4035D4603a8002o0378n2106l8160k0570m017P683J5653K5536M2877
1025a01484c2874F4344J18284J22012J05724P6089M5289K3637J4007J2749J4993
1014E97128J7024J6372J4171J4891K0125K4811K1373O305j6753l9016n2551n5881
1002E67999n3138m7506l7494k0804p9J7916K8237L1298L1328L1685L1873K7988
990F09303J4735j0745m5112p8688r9845j01857q6789o2794l8172j7929l350P730
978H6487J9419L4425N1228O3984O5759N3343L0094M207j6970l1260m0545m6382
966B73789m7447m1916l1785k2521j8347j9276k2196k4164B2008A069a1672m03
954a2075e64A8310K1328K0432J6219P865l153j2750j7406j7139j4482H204A520
940c98A548M979Q916J4434K0324K5489K9353L0245K5543J4334p92j5099k3660
927A35614k2167q466J5334M2491O4220P4270P1990O0993M4927K5890P283n682
915E06697j0134p392n60P227J2824J3906J0022J854r884k3658l6848m7475n4943
902C61636n8906n8816n4973m8717m0623l0123j7763o028J424O6j3246b041n8514
889f0555o9077o1562l9169j0742J5593L6079N0376N7745b5649A8449K8375J4113
877F0937K663n725q107j412J2871K8825L9892M2132L5880K5319J5734R841O138
864B64988J637l249l731M509K0628L9097N3012N6245M4966K0100j1128l8210n3942
851C94922n8123n4396m4871k9765j0949P263K0864K8048K9217K6618K2983J8815
839C50626J1259k747k2047m1023n3328n5716m9788m0484l1927k4450j5848n199
827A9328M866J0207R208L807k790p770q964n394L066J6532L4344N3441O8226P3714
813B71821O9521N9197M5865L0792J5172j14j5949l3170m9722o1576o5430n9469
801B06938m3360j9702M746K1022K2640R467j2317l4161m9754D7944a2598o2091
789g4689o2006n7332m6583l1321j4283K422J7342L0066M2113N5169O8373H558
776I5430R1103R0153Q1813O8266N5943M9652M8086M5316L6154J9733j043k1075
764F59531l4075l4904k3386n658J0049J9978K6444L2883L8552L8279K7061M715
752G59469k3946n2127p3291q2963q0981p1149n7120l9869k0210j972R630J1748
740B77219M481r702k5442l6490m1345m5321n3525F330f1584o1288m3949k1186
728a88007l16J3063J6998J2632K922p896j5494j8325j8923k1123k5990l0250k8420
715c09129j7362R23K1139L8191M8910N2492N0128M4100c3575b439B5635K8873
703E4508L2660L6764L8666L6641K8704J3771m755j9346k4275j9945j1836o913
691A54644r144j6926k6244l5185B4227b1941m0344k5483r113j14r8l345m556l366
677a08360q06M628J4519K6156c1291d405C503a3789l7222m3506l5934k2006j1979
664a64436j1980j9759k7787l0359k6699j8848q958J471J1457K0555K8480L4228
652b12635L6423L4497K9208K2325J5813J1419R921R268N474k514j0720j4021j0936
639g6478l969M342J4250K6568D365N0408N7313O1259O2955O0785N2866M0197K6180
626D16328J3638K821p542j7506k5228k9195k9753k7485k1419j0899J084Q592P640
613B81076q27j2033j9489j7915o614J0443K7806M1049M7450M6755M1956L7458
601D77115L5449L4647L1743K3739J0555m722j9557l4009m7915n9328o6727p0262
589C10728p0382o6423n7124m2987k7838j6860j2854F22b3301l5005m3917m6180
577a48403m1514l3019k3265j3171l676M009J0053J6978K7781M2295N5917d3393
564A5780M6984L0633J5205N116K703N968Q941N805m914k0386l6522B5954b9081
550h0845m2032l1294k4692k3982k5826k4479j7039m856R718K5828M2813N8063
538a38623O7730a334F3398N5786M2959K5044L580j6071k8073k9570k1649q226
526H7178O404J9235K8096L0908K6334J5934M716k470m471k874M02L393L950J197
512B17932l337p514j2023k0137l2417m3929m8578E027c2259l1620l1464l5177
500a30520l7841l5532k7029j3185L352J8281K7701L0874K9597K4584J4665j3j6001
487a11067k8969l6827l9200l5579k5621j0502O997K3771L7112M4376M3626L5485
475i6398K3431J2050M994L236N068Q808J5077A641L8675N0415N5480N1670M0110
462B37991K4346R445n07m736m485J65J0449K5561L9984M6112M0304K5557Q623
449D58809m751j2599j6063j7172j8151k1645k9024l7484m0351l2304j4339O811
437B21737K3083K8997K3351R155p544k0996l0330l9622n1998o4191B3773c3143
424f6483n643J7887b1247A7331L5315K5253J1074m969k0763C0085g960l2809j9174
411e9943l011Q845J1619M083j1459l0086m5945n5032n6995n3847m7369l7907k5529
398d02576j1883O32J1154K0062K7298L2613L6816M1523M7558N4348O0842a6078
385D9577N8624M5087K8936J3434j293j6049k9272l7574l9313C5580B179b9775
372f0631k7543k1055j2075k157O415J1311J1292O412k653j4908k8633m1163m9193
359b24581m9763m1721k6711q598Q699K2973L3560M0709M5619M9315N0887M7818
347e1794a4429D077a042k5459l5328l3436k4696j5861j0378p589n283j916K895
334a58093R288J6879K3391K5521K1936J4745P704L205R64n23j616j011K652Q748
320b6210a1559F382J8141J6535J5063J5147J6973J9477K0693J8753J3831Q744
308A69739O698Q992J4756K1418K5943K6830K4217J8469J0255P98r457k1931l8434
295B58293n7560p3147D9526b0186n1311k9289j0434R68N275N714L526l243j5791
282a14771l1603m5749n3868n4033m6824l4632k0710p866K376R763J5384K1256
270c61277K8533L6050M0638L9887L5566L1931K9675K4470J2702k982j4949j7073
258a16829r467K879J4587K3035K8722b4331A0032L1977K5817J8396J2121P701
246A06044N299O022J0486J6383J9482J6965Q737l057j3956j8182j2496Q33J6141
233A58701K9420M0656N1292O0464O5250O4084N7847M7718L3976J7868K765q695
221F21346j7260k4804l0897l3315l1055k5842k0436j5988j1994p676k242M299
209D04136R686J0352M265q160k4569m0178m8917m7441l6435j8187M100K5317L9413
196B73382M1741L1088J0509j3372l2626m2193m3011l9828l6419l3949l2366l1031
184E1925B4002C751c778A848J1680P003m233B918a0949m794e628A9698L5926L9605
170I5229L7432L2399K7480K4922K5206K5734K2643J4824M710n629j7785l4444
158B52721n4340p1544D7443b7598o1290m4590l1428k5709k7187l1060l0191j9849
146b98902j376J9074L5696M6404N1685N2298d6021b753C1931K1041J223k0797
134C3398e188m8690n0886m5333l2685j6149p13J0087J5382J5865J3016Q021R25
121a36348p846j6077k1049k1512j8002j2157o076j531L68p11k783l62J2115L3666
107a98305N5069O6155a2942D1283M3783L6048K8000J4003p845l2692n2568G545
94e4613n3933m1028k7710j7702j0774k395J1374K9222M5953N7696E97O7707O6088
81A34392N6779L8832J4150j3500l9205n7868o5987D036d9566l8859k0362%J8194
68i0593L0746b2417A7731L9661L4876K5218J1980l007j8314l1945C4427a3110
55f3585n1133m8790m2418l1966j8786m004J2968L2520N1672O5195b8713C5513
42H5284K8793O488j1105j9894j9058j0917M78J1223J8074J8275J0885j865j5674
29A00987k6225l0521A5980f468j7421j5129j3298q189J358J3584a9429A7623M4516
16F2139M8057M9719N2054N5261N6793N3536M4856L3273K1714J0900k19j2161k3335
3D52587l0951l3371l1510
0C56755
##END NTUPLES=NMR SPECTRUM
##END=
