##TITLE=13c deptQgpsp TBI ns 4k
##JCAMPDX= 6.0         $$ Bruker NMR JCAMP-DX V2.0
##DATA TYPE= NMR SPECTRUM
##DATA CLASS= NTUPLES
##ORIGIN= Bruker BioSpin GmbH
##OWNER= ocmess
##LONG DATE= 2009/06/26 05:37:37+0000
$$ 1.90.2.2 TopSpin 3.5.b.91 pl 7
$$ 2020-02-21 07:14:02.587 +0100  nes@nmr-nesnotebook
$$ Compression mode = diff/dup
##.OBSERVE FREQUENCY= 150.93550309
##.OBSERVE NUCLEUS= ^13C
##.ACQUISITION MODE= SIMULTANEOUS (DQD)
##.ACQUISITION SCHEME= undefined
##.AVERAGES= 744
##.DIGITISER RES= 21
##SPECTROMETER/DATA SYSTEM= spect
##.PULSE SEQUENCE= deptqgpsp
##.SOLVENT NAME= DMSO
##.SHIFT REFERENCE= INTERNAL, DMSO, 1, 219.4662
##AUDIT TRAIL= $$ (NUMBER, WHEN, WHO, WHERE, PROCESS, VERSION, WHAT)
$$ ##TITLE= Audit trail, TOPSPIN		Version 2.1
$$ ##JCAMPDX= 5.01
$$ ##ORIGIN= Bruker BioSpin GmbH
$$ ##OWNER= ocmess
$$ $$ /opt/topspin/data/ocmess/nmr/nesEX69/6/pdata/1/auditp.txt
$$ ##AUDIT TRAIL=  $$ (NUMBER, WHEN, WHO, WHERE, PROCESS, VERSION, WHAT)
(   1,<2009-06-26 07:39:59.074 +0200>,<ocmess>,<av600>,<go>,<TOPSPIN 2.1>,
      <created by zg
	started at 2009-06-26 06:16:00.205 +0200,
	POWCHK disabled, PULCHK disabled,
       terminated by command 'halt'
       configuration hash MD5:
       4D EB 05 20 4E C2 27 D5 8C 2B 1E 6A A2 4F 3F 0E
       data hash MD5: 256K
       1C BC AB 00 27 96 03 01 F9 91 82 6F CE 42 C7 16>)
(   2,<2009-06-26 15:18:37.305 +0200>,<ocmess>,<av600>,<proc1d>,<TOPSPIN 2.1>,
      <Start of raw data processing
       efp LB = 3 FT_mod = 6 PKNL = 1 PHC0 = 443.9576 PHC1 = -203.3973 SI = 256K 
       data hash MD5: 256K
       98 37 62 E8 37 71 DD 19 E6 25 9A 01 EF 28 45 61>)
$$ ##END=
$$ 
$$ $$ hash MD5
$$ $$ 00 78 1F 26 E3 C8 F6 7E 50 0E 98 5B 52 93 FB 31
##$RELAX= 
##$BRUKER FILE EXP=cpdprg2
$$ ;$OWNER=Bruker
$$ 1 pcpd*3:180
$$   pcpd*4:0
$$   pcpd*2:180
$$   pcpd*3:0
$$   pcpd  :180
$$   pcpd*2:0
$$   pcpd*4:180
$$   pcpd*2:0
$$   pcpd*3:180
$$ 2 pcpd*3:0
$$   pcpd*4:180
$$   pcpd*2:0
$$   pcpd*3:180
$$   pcpd  :0
$$   pcpd*2:180
$$   pcpd*4:0
$$   pcpd*2:180
$$   pcpd*3:0
$$   lo to 2 times 2
$$ 3 pcpd*3:180
$$   pcpd*4:0
$$   pcpd*2:180
$$   pcpd*3:0
$$   pcpd  :180
$$   pcpd*2:0
$$   pcpd*4:180
$$   pcpd*2:0
$$   pcpd*3:180
$$   jump to 1
##$RELAX= 
##$BRUKER FILE EXP=format.temp
$$ EDIT_PAR COMMAND FILE
$$ 
$$ DI_MODE         LONG
$$ ED_ENTRY        ACQU
$$ ORDER           FILE
$$ 
$$ 
$$ HEADER		"F2 - Acquisition Parameters"
$$ T_NAME		Date_
$$ 		TYPE	R64
$$ 		CLASS	ACQU
$$ 		SUBRANGE 0.0 50000000
$$ 		REL	"Date_=itodate(DATE)"
$$ 		INV_REL	"DATE=datetoi(Date_,DATE)"
$$ 		FORMAT	"%14.0f"
$$ 		TEXT	" "
$$ END
$$ T_NAME		Time
$$ 		TYPE	R32
$$ 		CLASS	ACQU
$$ 		SUBRANGE 0.0 1000000
$$ 		REL	"Time=itotime(DATE)"
$$ 		INV_REL	"DATE=timetoi(Time,DATE)"
$$ 		FORMAT	"%14.2f"
$$ 		TEXT	" "
$$ END
$$ NAME		INSTRUM
$$ 		TEXT	" "
$$ END
$$ NAME		PROBHD
$$ 		FORMAT	"%14.14s"
$$ 		TEXT	" "
$$ END
$$ NAME		PULPROG
$$ 		TEXT	" "
$$ END
$$ NAME		TD
$$ 		TEXT	" "
$$ END
$$ NAME		SOLVENT
$$ 		TEXT	" "
$$ END
$$ NAME		NS
$$ 		TEXT	" "
$$ END
$$ NAME		DS
$$ 		TEXT	" "
$$ END
$$ T_NAME		SWH
$$ 		TYPE	R32
$$ 		CLASS	ACQU
$$ 		SUBRANGE 0.0 1e8
$$ 		REL	"SWH=SW*SFO1"
$$ 		INV_REL "SW=SWH/SFO1"
$$ 		UNIT	"Hz"
$$ 		FORMAT	"%14.3f Hz"
$$ 		TEXT	" "
$$ END
$$ T_NAME          FIDRES
$$                 TYPE    R32
$$                 CLASS   ACQU
$$                 SUBRANGE 0.0 100000
$$                 REL     "FIDRES=SW*SFO1/TD"
$$                 INV_REL "TD = nextpow(SW*SFO1/FIDRES)"
$$ 		UNIT	"Hz"
$$ 		FORMAT	"%14.6f Hz"
$$ 		TEXT	" "
$$ END
$$ T_NAME          AQ
$$ 		TYPE	R32
$$ 		CLASS	ACQU
$$ 		SUBRANGE 0.0 1000
$$ 		REL	"AQ=aqcalc(SW,SFO1,TD,DIGTYP)"
$$ 		INV_REL	"TD=tdcalc(SW,SFO1,1.0e6*AQ,DIGTYP)"
$$ 		UNIT	"sec"
$$ 		FORMAT	"%14.7f sec"
$$ 		TEXT	" "
$$ END
$$ NAME		RG
$$ 		TEXT	" "
$$ END
$$ T_NAME          DW
$$ 		TYPE	R32
$$ 		CLASS	ACQU
$$ 		SUBRANGE 0.0 1000000
$$ 		REL	"DW=1/(2*SW*SFO1)"
$$ 		INV_REL	"SW=1000000/(2*(0.005+DW)*SFO1)"
$$ 		UNIT	"usec"
$$ 		FORMAT	"%14.3lf usec"
$$ 		TEXT	" "
$$ END
$$ NAME		DE
$$ 		FORMAT	"%14.2f usec"
$$ 		TEXT	" "
$$ END
$$ NAME		TE
$$ 		FORMAT	"%14.1f K"
$$ 		TEXT	" "
$$ END
$$ T_NAME		CNST2
$$ 		TYPE	R32
$$ 		CLASS	ACQU
$$ 		SUBRANGE -1e38 1e38
$$ 		REL	"CNST2=CNST[2]"
$$ 		INV_REL	"CNST[2]=CNST2"
$$ 		FORMAT	"%14.7f"
$$ 		TEXT	" "
$$ END
$$ T_NAME		CNST12
$$ 		TYPE	R32
$$ 		CLASS	ACQU
$$ 		SUBRANGE -1e38 1e38
$$ 		REL	"CNST12=CNST[12]"
$$ 		INV_REL	"CNST[12]=CNST12"
$$ 		FORMAT	"%14.7f"
$$ 		TEXT	" "
$$ END
$$ T_NAME		D1
$$ 		TYPE	R32
$$ 		CLASS	ACQU
$$ 		SUBRANGE 0.0 1e38
$$ 		REL	"D1=D[1]"
$$ 		INV_REL	"D[1]=D1"
$$ 		UNIT	"sec"
$$ 		FORMAT	"%14.8f sec"
$$ 		TEXT	" "
$$ END
$$ T_NAME		D2
$$ 		TYPE	R32
$$ 		CLASS	ACQU
$$ 		SUBRANGE 0.0 1e38
$$ 		REL	"D2=D[2]"
$$ 		INV_REL	"D[2]=D2"
$$ 		UNIT	"sec"
$$ 		FORMAT	"%14.8f sec"
$$ 		TEXT	" "
$$ END
$$ T_NAME		D12
$$ 		TYPE	R32
$$ 		CLASS	ACQU
$$ 		SUBRANGE 0.0 1e38
$$ 		REL	"D12=D[12]"
$$ 		INV_REL	"D[12]=D12"
$$ 		UNIT	"sec"
$$ 		FORMAT	"%14.8f sec"
$$ 		TEXT	" "
$$ END
$$ T_NAME		D16
$$ 		TYPE	R32
$$ 		CLASS	ACQU
$$ 		SUBRANGE 0.0 1e38
$$ 		REL	"D16=D[16]"
$$ 		INV_REL	"D[16]=D16"
$$ 		UNIT	"sec"
$$ 		FORMAT	"%14.8f sec"
$$ 		TEXT	" "
$$ END
$$ NAME		TD0
$$ 		TEXT	" "
$$ END
$$ HEADER		"======== CHANNEL f1 ========"
$$ NAME		NUC1
$$ 		NONEDIT
$$ 		TEXT	" "
$$ END
$$ T_NAME		P1
$$ 		TYPE	R32
$$ 		CLASS	ACQU
$$ 		SUBRANGE 0.0 1.0e10
$$ 		REL	"P1=P[1]"
$$ 		INV_REL	"P[1]=P1"
$$ 		UNIT	"usec"
$$ 		FORMAT	"%14.2f usec"
$$ 		TEXT	" "
$$ END
$$ T_NAME		P12
$$ 		TYPE	R32
$$ 		CLASS	ACQU
$$ 		SUBRANGE 0.0 1.0e10
$$ 		REL	"P12=P[12]"
$$ 		INV_REL	"P[12]=P12"
$$ 		UNIT	"usec"
$$ 		FORMAT	"%14.2f usec"
$$ 		TEXT	" "
$$ END
$$ T_NAME		PL0
$$ 		TYPE	R32
$$ 		CLASS	ACQU
$$ 		SUBRANGE -6.0 1e38
$$ 		REL	"PL0=PL[0]"
$$ 		INV_REL	"PL[0]=PL0"
$$ 		UNIT	"dB"
$$ 		FORMAT	"%14.2f dB"
$$ 		TEXT	" "
$$ END
$$ T_NAME		PL1
$$ 		TYPE	R32
$$ 		CLASS	ACQU
$$ 		SUBRANGE -6.0 1e38
$$ 		REL	"PL1=PL[1]"
$$ 		INV_REL	"PL[1]=PL1"
$$ 		UNIT	"dB"
$$ 		FORMAT	"%14.2f dB"
$$ 		TEXT	" "
$$ END
$$ T_NAME		PL0W
$$ 		TYPE	R32
$$ 		CLASS	ACQU
$$ 		SUBRANGE -6.0 1e38
$$ 		REL	"PL0W=329*pow(10.0,(-6-PL[0])/10.0)"
$$ 		INV_REL	"PL[0]=-6-4.3425*log(PL0W/329)"
$$ 		UNIT	"no"
$$ 		FORMAT	"%14.8f W"
$$ 		TEXT	" "
$$ END
$$ T_NAME		PL1W
$$ 		TYPE	R32
$$ 		CLASS	ACQU
$$ 		SUBRANGE -6.0 1e38
$$ 		REL	"PL1W=329*pow(10.0,(-6-PL[1])/10.0)"
$$ 		INV_REL	"PL[1]=-6-4.3425*log(PL1W/329)"
$$ 		UNIT	"no"
$$ 		FORMAT	"%14.8f W"
$$ 		TEXT	" "
$$ END
$$ NAME		SFO1
$$ 		FORMAT	"%14.7f MHz"
$$ 		TEXT	" "
$$ END
$$ T_NAME		SP2
$$ 		TYPE	R32
$$ 		CLASS	ACQU
$$ 		SUBRANGE -6.0 120
$$ 		REL	"SP2=SP[2]"
$$ 		INV_REL	"SP[2]=SP2"
$$ 		UNIT	"dB"
$$ 		FORMAT	"%14.2f dB"
$$ 		TEXT	" "
$$ END
$$ NAME		SPNAM2
$$ 		TEXT	" "
$$ END
$$ T_NAME		SPOAL2
$$ 		TYPE	R32
$$ 		CLASS	ACQU
$$ 		SUBRANGE -1.0 1.0
$$ 		REL	"SPOAL2=SPOAL[2]"
$$ 		INV_REL	"SPOAL[2]=SPOAL2"
$$ 		FORMAT	"%14.3f"
$$ 		TEXT	" "
$$ END
$$ T_NAME		SPOFFS2
$$ 		TYPE	R32
$$ 		CLASS	ACQU
$$ 		SUBRANGE -1e38 1e38
$$ 		REL	"SPOFFS2=SPOFFS[2]"
$$ 		INV_REL	"SPOFFS[0]=SPOFFS0"
$$ 		UNIT	"Hz"
$$ 		FORMAT	"%14.2f Hz"
$$ 		TEXT	" "
$$ END
$$ HEADER		"======== CHANNEL f2 ========"
$$ NAME		CPDPRG2
$$ 		TEXT	" "
$$ END
$$ NAME		NUC2
$$ 		NONEDIT
$$ 		TEXT	" "
$$ END
$$ T_NAME		P0
$$ 		TYPE	R32
$$ 		CLASS	ACQU
$$ 		SUBRANGE 0.0 1.0e10
$$ 		REL	"P0=P[0]"
$$ 		INV_REL	"P[0]=P0"
$$ 		UNIT	"usec"
$$ 		FORMAT	"%14.2f usec"
$$ 		TEXT	" "
$$ END
$$ T_NAME		P3
$$ 		TYPE	R32
$$ 		CLASS	ACQU
$$ 		SUBRANGE 0.0 1.0e10
$$ 		REL	"P3=P[3]"
$$ 		INV_REL	"P[3]=P3"
$$ 		UNIT	"usec"
$$ 		FORMAT	"%14.2f usec"
$$ 		TEXT	" "
$$ END
$$ T_NAME		P4
$$ 		TYPE	R32
$$ 		CLASS	ACQU
$$ 		SUBRANGE 0.0 1.0e10
$$ 		REL	"P4=P[4]"
$$ 		INV_REL	"P[4]=P4"
$$ 		UNIT	"usec"
$$ 		FORMAT	"%14.2f usec"
$$ 		TEXT	" "
$$ END
$$ T_NAME		PCPD2
$$ 		TYPE	R32
$$ 		CLASS	ACQU
$$ 		SUBRANGE 0 1e38
$$ 		REL	"PCPD2=PCPD[2]"
$$ 		INV_REL	"PCPD[2]=PCPD2"
$$ 		UNIT	"usec"
$$ 		FORMAT	"%14.2f usec"
$$ 		TEXT	" "
$$ END
$$ T_NAME		PL2
$$ 		TYPE	R32
$$ 		CLASS	ACQU
$$ 		SUBRANGE -6.0 1e38
$$ 		REL	"PL2=PL[2]"
$$ 		INV_REL	"PL[2]=PL2"
$$ 		UNIT	"dB"
$$ 		FORMAT	"%14.2f dB"
$$ 		TEXT	" "
$$ END
$$ T_NAME		PL12
$$ 		TYPE	R32
$$ 		CLASS	ACQU
$$ 		SUBRANGE -6.0 1e38
$$ 		REL	"PL12=PL[12]"
$$ 		INV_REL	"PL[12]=PL12"
$$ 		UNIT	"dB"
$$ 		FORMAT	"%14.2f dB"
$$ 		TEXT	" "
$$ END
$$ T_NAME		PL2W
$$ 		TYPE	R32
$$ 		CLASS	ACQU
$$ 		SUBRANGE -6.0 1e38
$$ 		REL	"PL2W=47*pow(10.0,(-6-PL[2])/10.0)"
$$ 		INV_REL	"PL[2]=-6-4.3425*log(PL2W/47)"
$$ 		UNIT	"no"
$$ 		FORMAT	"%14.8f W"
$$ 		TEXT	" "
$$ END
$$ T_NAME		PL12W
$$ 		TYPE	R32
$$ 		CLASS	ACQU
$$ 		SUBRANGE -6.0 1e38
$$ 		REL	"PL12W=47*pow(10.0,(-6-PL[12])/10.0)"
$$ 		INV_REL	"PL[12]=-6-4.3425*log(PL12W/47)"
$$ 		UNIT	"no"
$$ 		FORMAT	"%14.8f W"
$$ 		TEXT	" "
$$ END
$$ NAME		SFO2
$$ 		FORMAT	"%14.7f MHz"
$$ 		TEXT	" "
$$ END
$$ HEADER		"====== GRADIENT CHANNEL ====="
$$ NAME		GPNAM1
$$ 		TEXT	" "
$$ END
$$ NAME		GPNAM2
$$ 		TEXT	" "
$$ END
$$ NAME		GPNAM3
$$ 		TEXT	" "
$$ END
$$ T_NAME		GPZ1
$$ 		TYPE	R32
$$ 		CLASS	ACQU
$$ 		SUBRANGE -100.0 100.0
$$ 		REL	"GPZ1=GPZ[1]"
$$ 		INV_REL	"GPZ[1]=GPZ1"
$$ 		UNIT	"%"
$$ 		FORMAT	"%14.2f %"
$$ 		TEXT	" "
$$ END
$$ T_NAME		GPZ2
$$ 		TYPE	R32
$$ 		CLASS	ACQU
$$ 		SUBRANGE -100.0 100.0
$$ 		REL	"GPZ2=GPZ[2]"
$$ 		INV_REL	"GPZ[2]=GPZ2"
$$ 		UNIT	"%"
$$ 		FORMAT	"%14.2f %"
$$ 		TEXT	" "
$$ END
$$ T_NAME		GPZ3
$$ 		TYPE	R32
$$ 		CLASS	ACQU
$$ 		SUBRANGE -100.0 100.0
$$ 		REL	"GPZ3=GPZ[3]"
$$ 		INV_REL	"GPZ[3]=GPZ3"
$$ 		UNIT	"%"
$$ 		FORMAT	"%14.2f %"
$$ 		TEXT	" "
$$ END
$$ T_NAME		P16
$$ 		TYPE	R32
$$ 		CLASS	ACQU
$$ 		SUBRANGE 0.0 1.0e10
$$ 		REL	"P16=P[16]"
$$ 		INV_REL	"P[16]=P16"
$$ 		UNIT	"usec"
$$ 		FORMAT	"%14.2f usec"
$$ 		TEXT	" "
$$ END
##$RELAX= 
##$BRUKER FILE EXP=scon2
$$ ##TITLE= Parameter file, TOPSPIN		Version 2.1
$$ ##JCAMPDX= 5.0
$$ ##DATATYPE= Parameter Values
$$ ##NPOINTS= 2	$$ modification sequence number
$$ ##ORIGIN= Bruker BioSpin GmbH
$$ ##OWNER= ocmess
$$ $$ 2009-06-26 06:16:00.079 +0200  ocmess@av600
$$ $$ /opt/topspin/data/ocmess/nmr/nesEX69/6/scon2
$$ $$ process /opt/topspin2.1/prog/mod/go
$$ ##$BLKTR= (0..15)
3 3 3 3 3 3 3 3 3 3 3 3 3 3 3 3
$$ ##$DE1= 4.5
$$ ##$DEADC= 0.5
$$ ##$DEPA= 4.5
$$ ##$DERX= 1.5
$$ ##$FILCOR= 0.7
$$ ##END=
##$RELAX= 
##$BRUKER FILE EXP=spnam2
$$ ##TITLE= sm. comp. Chirp: 60kHz, 2ms
$$ ##JCAMP-DX= 5.00 Bruker JCAMP library
$$ ##DATA TYPE= Shape Data
$$ ##ORIGIN= Bruker BioSpin GmbH
$$ ##OWNER= <demo>
$$ ##DATE= 2005/09/22
$$ ##TIME= 18:40:13
$$ ##$SHAPE_PARAMETERS= Type: CompositeSmoothedChirp Add Const. Phase -84.0
$$ ##MINX= 0.000000E00
$$ ##MAXX= 1.000000E02
$$ ##MINY= 1.110750E-01
$$ ##MAXY= 3.599617E02
$$ ##$SHAPE_EXMODE= CompositeAdiabatic
$$ ##$SHAPE_TOTROT= 1.800000E02
$$ ##$SHAPE_TYPE= Refocussing
$$ ##$SHAPE_USER_DEF= 
$$ ##$SHAPE_REPHFAC= 
$$ ##$SHAPE_BWFAC= 8.099400E01
$$ ##$SHAPE_BWFAC50= 
$$ ##$SHAPE_INTEGFAC= 2.558317E-02
$$ ##$SHAPE_MODE= 0
$$ ##NPOINTS= 4000
$$ ##XYPOINTS= (XY..XY)
$$ 0.000000E00, 1.833013E02
$$ 7.893367E-01, 1.779122E02
$$ 1.578624E00, 1.725338E02
$$ 2.367813E00, 1.671662E02
$$ 3.156855E00, 1.618093E02
$$ 3.945700E00, 1.564633E02
$$ 4.734299E00, 1.511282E02
$$ 5.522603E00, 1.458037E02
$$ 6.310563E00, 1.404901E02
$$ 7.098130E00, 1.351873E02
$$ 7.885255E00, 1.298954E02
$$ 8.671888E00, 1.246142E02
$$ 9.457981E00, 1.193437E02
$$ 1.024348E01, 1.140841E02
$$ 1.102835E01, 1.088353E02
$$ 1.181253E01, 1.035973E02
$$ 1.259597E01, 9.837015E01
$$ 1.337863E01, 9.315375E01
$$ 1.416045E01, 8.794815E01
$$ 1.494139E01, 8.275335E01
$$ 1.572140E01, 7.756935E01
$$ 1.650044E01, 7.239615E01
$$ 1.727844E01, 6.723375E01
$$ 1.805537E01, 6.208215E01
$$ 1.883117E01, 5.694135E01
$$ 1.960579E01, 5.181135E01
$$ 2.037920E01, 4.669215E01
$$ 2.115134E01, 4.158375E01
$$ 2.192216E01, 3.648615E01
$$ 2.269161E01, 3.139935E01
$$ 2.345965E01, 2.632335E01
$$ 2.422623E01, 2.125815E01
$$ 2.499130E01, 1.620375E01
$$ 2.575481E01, 1.116015E01
$$ 2.651671E01, 6.127350E00
$$ 2.727697E01, 1.105350E00
$$ 2.803552E01, 3.560941E02
$$ 2.879233E01, 3.510937E02
$$ 2.954734E01, 3.461042E02
$$ 3.030052E01, 3.411253E02
$$ 3.105180E01, 3.361573E02
$$ 3.180115E01, 3.312001E02
$$ 3.254852E01, 3.262537E02
$$ 3.329386E01, 3.213182E02
$$ 3.403713E01, 3.163933E02
$$ 3.477828E01, 3.114793E02
$$ 3.551726E01, 3.065761E02
$$ 3.625402E01, 3.016837E02
$$ 3.698853E01, 2.968021E02
$$ 3.772073E01, 2.919314E02
$$ 3.845058E01, 2.870713E02
$$ 3.917804E01, 2.822221E02
$$ 3.990306E01, 2.773837E02
$$ 4.062559E01, 2.725561E02
$$ 4.134558E01, 2.677394E02
$$ 4.206301E01, 2.629333E02
$$ 4.277781E01, 2.581382E02
$$ 4.348994E01, 2.533537E02
$$ 4.419937E01, 2.485802E02
$$ 4.490604E01, 2.438174E02
$$ 4.560992E01, 2.390654E02
$$ 4.631095E01, 2.343241E02
$$ 4.700910E01, 2.295937E02
$$ 4.770431E01, 2.248741E02
$$ 4.839656E01, 2.201653E02
$$ 4.908579E01, 2.154674E02
$$ 4.977196E01, 2.107801E02
$$ 5.045503E01, 2.061038E02
$$ 5.113496E01, 2.014381E02
$$ 5.181170E01, 1.967834E02
$$ 5.248522E01, 1.921393E02
$$ 5.315546E01, 1.875062E02
$$ 5.382239E01, 1.828837E02
$$ 5.448597E01, 1.782721E02
$$ 5.514615E01, 1.736713E02
$$ 5.580290E01, 1.690813E02
$$ 5.645617E01, 1.645021E02
$$ 5.710592E01, 1.599337E02
$$ 5.775212E01, 1.553761E02
$$ 5.839471E01, 1.508293E02
$$ 5.903367E01, 1.462934E02
$$ 5.966895E01, 1.417682E02
$$ 6.030051E01, 1.372537E02
$$ 6.092832E01, 1.327501E02
$$ 6.155232E01, 1.282573E02
$$ 6.217250E01, 1.237754E02
$$ 6.278880E01, 1.193041E02
$$ 6.340118E01, 1.148438E02
$$ 6.400962E01, 1.103941E02
$$ 6.461407E01, 1.059553E02
$$ 6.521449E01, 1.015274E02
$$ 6.581085E01, 9.711015E01
$$ 6.640311E01, 9.270375E01
$$ 6.699124E01, 8.830815E01
$$ 6.757518E01, 8.392335E01
$$ 6.815492E01, 7.954935E01
$$ 6.873041E01, 7.518615E01
$$ 6.930162E01, 7.083375E01
$$ 6.986851E01, 6.649215E01
$$ 7.043105E01, 6.216135E01
$$ 7.098920E01, 5.784135E01
$$ 7.154293E01, 5.353215E01
$$ 7.209220E01, 4.923375E01
$$ 7.263698E01, 4.494615E01
$$ 7.317723E01, 4.066935E01
$$ 7.371292E01, 3.640335E01
$$ 7.424402E01, 3.214815E01
$$ 7.477049E01, 2.790375E01
$$ 7.529231E01, 2.367015E01
$$ 7.580943E01, 1.944735E01
$$ 7.632183E01, 1.523535E01
$$ 7.682948E01, 1.103415E01
$$ 7.733233E01, 6.843750E00
$$ 7.783037E01, 2.664150E00
$$ 7.832356E01, 3.584954E02
$$ 7.881187E01, 3.543373E02
$$ 7.929527E01, 3.501902E02
$$ 7.977373E01, 3.460537E02
$$ 8.024722E01, 3.419282E02
$$ 8.071571E01, 3.378133E02
$$ 8.117917E01, 3.337094E02
$$ 8.163757E01, 3.296161E02
$$ 8.209089E01, 3.255337E02
$$ 8.253909E01, 3.214621E02
$$ 8.298215E01, 3.174013E02
$$ 8.342003E01, 3.133514E02
$$ 8.385272E01, 3.093122E02
$$ 8.428019E01, 3.052837E02
$$ 8.470240E01, 3.012662E02
$$ 8.511934E01, 2.972593E02
$$ 8.553097E01, 2.932634E02
$$ 8.593728E01, 2.892781E02
$$ 8.633823E01, 2.853038E02
$$ 8.673380E01, 2.813401E02
$$ 8.712396E01, 2.773873E02
$$ 8.750870E01, 2.734453E02
$$ 8.788799E01, 2.695142E02
$$ 8.826180E01, 2.655938E02
$$ 8.863011E01, 2.616842E02
$$ 8.899290E01, 2.577854E02
$$ 8.935014E01, 2.538973E02
$$ 8.970182E01, 2.500202E02
$$ 9.004790E01, 2.461537E02
$$ 9.038838E01, 2.422981E02
$$ 9.072323E01, 2.384533E02
$$ 9.105242E01, 2.346193E02
$$ 9.137594E01, 2.307962E02
$$ 9.169376E01, 2.269838E02
$$ 9.200588E01, 2.231821E02
$$ 9.231226E01, 2.193914E02
$$ 9.261288E01, 2.156114E02
$$ 9.290774E01, 2.118421E02
$$ 9.319681E01, 2.080838E02
$$ 9.348008E01, 2.043361E02
$$ 9.375751E01, 2.005993E02
$$ 9.402911E01, 1.968733E02
$$ 9.429485E01, 1.931581E02
$$ 9.455471E01, 1.894537E02
$$ 9.480868E01, 1.857602E02
$$ 9.505675E01, 1.820774E02
$$ 9.529889E01, 1.784053E02
$$ 9.553510E01, 1.747442E02
$$ 9.576535E01, 1.710937E02
$$ 9.598963E01, 1.674542E02
$$ 9.620794E01, 1.638253E02
$$ 9.642025E01, 1.602074E02
$$ 9.662655E01, 1.566001E02
$$ 9.682683E01, 1.530037E02
$$ 9.702108E01, 1.494181E02
$$ 9.720928E01, 1.458434E02
$$ 9.739143E01, 1.422794E02
$$ 9.756751E01, 1.387261E02
$$ 9.773751E01, 1.351837E02
$$ 9.790142E01, 1.316521E02
$$ 9.805923E01, 1.281314E02
$$ 9.821093E01, 1.246213E02
$$ 9.835651E01, 1.211222E02
$$ 9.849597E01, 1.176337E02
$$ 9.862928E01, 1.141562E02
$$ 9.875646E01, 1.106893E02
$$ 9.887747E01, 1.072333E02
$$ 9.899233E01, 1.037881E02
$$ 9.910102E01, 1.003537E02
$$ 9.920354E01, 9.693015E01
$$ 9.929987E01, 9.351735E01
$$ 9.939002E01, 9.011535E01
$$ 9.947397E01, 8.672415E01
$$ 9.955173E01, 8.334375E01
$$ 9.962328E01, 7.997415E01
$$ 9.968863E01, 7.661535E01
$$ 9.974776E01, 7.326735E01
$$ 9.980069E01, 6.993015E01
$$ 9.984739E01, 6.660375E01
$$ 9.988787E01, 6.328815E01
$$ 9.992213E01, 5.998335E01
$$ 9.995016E01, 5.668935E01
$$ 9.997196E01, 5.340615E01
$$ 9.998754E01, 5.013375E01
$$ 9.999688E01, 4.687215E01
$$ 1.000000E02, 4.362135E01
$$ 1.000000E02, 4.038135E01
$$ 1.000000E02, 3.715215E01
$$ 1.000000E02, 3.393375E01
$$ 1.000000E02, 3.072615E01
$$ 1.000000E02, 2.752935E01
$$ 1.000000E02, 2.434335E01
$$ 1.000000E02, 2.116815E01
$$ 1.000000E02, 1.800375E01
$$ 1.000000E02, 1.485015E01
$$ 1.000000E02, 1.170735E01
$$ 1.000000E02, 8.575350E00
$$ 1.000000E02, 5.454150E00
$$ 1.000000E02, 2.343750E00
$$ 1.000000E02, 3.592442E02
$$ 1.000000E02, 3.561554E02
$$ 1.000000E02, 3.530773E02
$$ 1.000000E02, 3.500102E02
$$ 1.000000E02, 3.469537E02
$$ 1.000000E02, 3.439082E02
$$ 1.000000E02, 3.408734E02
$$ 1.000000E02, 3.378493E02
$$ 1.000000E02, 3.348362E02
$$ 1.000000E02, 3.318337E02
$$ 1.000000E02, 3.288422E02
$$ 1.000000E02, 3.258613E02
$$ 1.000000E02, 3.228914E02
$$ 1.000000E02, 3.199322E02
$$ 1.000000E02, 3.169838E02
$$ 1.000000E02, 3.140461E02
$$ 1.000000E02, 3.111193E02
$$ 1.000000E02, 3.082033E02
$$ 1.000000E02, 3.052981E02
$$ 1.000000E02, 3.024038E02
$$ 1.000000E02, 2.995201E02
$$ 1.000000E02, 2.966474E02
$$ 1.000000E02, 2.937853E02
$$ 1.000000E02, 2.909342E02
$$ 1.000000E02, 2.880937E02
$$ 1.000000E02, 2.852642E02
$$ 1.000000E02, 2.824453E02
$$ 1.000000E02, 2.796373E02
$$ 1.000000E02, 2.768402E02
$$ 1.000000E02, 2.740537E02
$$ 1.000000E02, 2.712782E02
$$ 1.000000E02, 2.685133E02
$$ 1.000000E02, 2.657594E02
$$ 1.000000E02, 2.630161E02
$$ 1.000000E02, 2.602838E02
$$ 1.000000E02, 2.575622E02
$$ 1.000000E02, 2.548513E02
$$ 1.000000E02, 2.521513E02
$$ 1.000000E02, 2.494621E02
$$ 1.000000E02, 2.467838E02
$$ 1.000000E02, 2.441161E02
$$ 1.000000E02, 2.414593E02
$$ 1.000000E02, 2.388133E02
$$ 1.000000E02, 2.361781E02
$$ 1.000000E02, 2.335537E02
$$ 1.000000E02, 2.309401E02
$$ 1.000000E02, 2.283374E02
$$ 1.000000E02, 2.257454E02
$$ 1.000000E02, 2.231642E02
$$ 1.000000E02, 2.205938E02
$$ 1.000000E02, 2.180342E02
$$ 1.000000E02, 2.154853E02
$$ 1.000000E02, 2.129473E02
$$ 1.000000E02, 2.104201E02
$$ 1.000000E02, 2.079038E02
$$ 1.000000E02, 2.053982E02
$$ 1.000000E02, 2.029034E02
$$ 1.000000E02, 2.004194E02
$$ 1.000000E02, 1.979462E02
$$ 1.000000E02, 1.954838E02
$$ 1.000000E02, 1.930322E02
$$ 1.000000E02, 1.905913E02
$$ 1.000000E02, 1.881613E02
$$ 1.000000E02, 1.857421E02
$$ 1.000000E02, 1.833337E02
$$ 1.000000E02, 1.809362E02
$$ 1.000000E02, 1.785494E02
$$ 1.000000E02, 1.761733E02
$$ 1.000000E02, 1.738082E02
$$ 1.000000E02, 1.714538E02
$$ 1.000000E02, 1.691101E02
$$ 1.000000E02, 1.667773E02
$$ 1.000000E02, 1.644553E02
$$ 1.000000E02, 1.621441E02
$$ 1.000000E02, 1.598437E02
$$ 1.000000E02, 1.575542E02
$$ 1.000000E02, 1.552753E02
$$ 1.000000E02, 1.530073E02
$$ 1.000000E02, 1.507502E02
$$ 1.000000E02, 1.485038E02
$$ 1.000000E02, 1.462681E02
$$ 1.000000E02, 1.440433E02
$$ 1.000000E02, 1.418293E02
$$ 1.000000E02, 1.396261E02
$$ 1.000000E02, 1.374338E02
$$ 1.000000E02, 1.352521E02
$$ 1.000000E02, 1.330814E02
$$ 1.000000E02, 1.309214E02
$$ 1.000000E02, 1.287722E02
$$ 1.000000E02, 1.266337E02
$$ 1.000000E02, 1.245061E02
$$ 1.000000E02, 1.223893E02
$$ 1.000000E02, 1.202833E02
$$ 1.000000E02, 1.181881E02
$$ 1.000000E02, 1.161037E02
$$ 1.000000E02, 1.140301E02
$$ 1.000000E02, 1.119673E02
$$ 1.000000E02, 1.099154E02
$$ 1.000000E02, 1.078741E02
$$ 1.000000E02, 1.058438E02
$$ 1.000000E02, 1.038241E02
$$ 1.000000E02, 1.018153E02
$$ 1.000000E02, 9.981735E01
$$ 1.000000E02, 9.783015E01
$$ 1.000000E02, 9.585375E01
$$ 1.000000E02, 9.388815E01
$$ 1.000000E02, 9.193335E01
$$ 1.000000E02, 8.998935E01
$$ 1.000000E02, 8.805615E01
$$ 1.000000E02, 8.613375E01
$$ 1.000000E02, 8.422215E01
$$ 1.000000E02, 8.232135E01
$$ 1.000000E02, 8.043135E01
$$ 1.000000E02, 7.855215E01
$$ 1.000000E02, 7.668375E01
$$ 1.000000E02, 7.482615E01
$$ 1.000000E02, 7.297935E01
$$ 1.000000E02, 7.114335E01
$$ 1.000000E02, 6.931815E01
$$ 1.000000E02, 6.750375E01
$$ 1.000000E02, 6.570015E01
$$ 1.000000E02, 6.390735E01
$$ 1.000000E02, 6.212535E01
$$ 1.000000E02, 6.035415E01
$$ 1.000000E02, 5.859375E01
$$ 1.000000E02, 5.684415E01
$$ 1.000000E02, 5.510535E01
$$ 1.000000E02, 5.337735E01
$$ 1.000000E02, 5.166015E01
$$ 1.000000E02, 4.995375E01
$$ 1.000000E02, 4.825815E01
$$ 1.000000E02, 4.657335E01
$$ 1.000000E02, 4.489935E01
$$ 1.000000E02, 4.323615E01
$$ 1.000000E02, 4.158375E01
$$ 1.000000E02, 3.994215E01
$$ 1.000000E02, 3.831135E01
$$ 1.000000E02, 3.669135E01
$$ 1.000000E02, 3.508215E01
$$ 1.000000E02, 3.348375E01
$$ 1.000000E02, 3.189615E01
$$ 1.000000E02, 3.031935E01
$$ 1.000000E02, 2.875335E01
$$ 1.000000E02, 2.719815E01
$$ 1.000000E02, 2.565375E01
$$ 1.000000E02, 2.412015E01
$$ 1.000000E02, 2.259735E01
$$ 1.000000E02, 2.108535E01
$$ 1.000000E02, 1.958415E01
$$ 1.000000E02, 1.809375E01
$$ 1.000000E02, 1.661415E01
$$ 1.000000E02, 1.514535E01
$$ 1.000000E02, 1.368735E01
$$ 1.000000E02, 1.224015E01
$$ 1.000000E02, 1.080375E01
$$ 1.000000E02, 9.378150E00
$$ 1.000000E02, 7.963350E00
$$ 1.000000E02, 6.559350E00
$$ 1.000000E02, 5.166150E00
$$ 1.000000E02, 3.783750E00
$$ 1.000000E02, 2.412150E00
$$ 1.000000E02, 1.051350E00
$$ 1.000000E02, 3.597014E02
$$ 1.000000E02, 3.583622E02
$$ 1.000000E02, 3.570338E02
$$ 1.000000E02, 3.557161E02
$$ 1.000000E02, 3.544094E02
$$ 1.000000E02, 3.531133E02
$$ 1.000000E02, 3.518282E02
$$ 1.000000E02, 3.505538E02
$$ 1.000000E02, 3.492902E02
$$ 1.000000E02, 3.480373E02
$$ 1.000000E02, 3.467954E02
$$ 1.000000E02, 3.455642E02
$$ 1.000000E02, 3.443438E02
$$ 1.000000E02, 3.431342E02
$$ 1.000000E02, 3.419353E02
$$ 1.000000E02, 3.407474E02
$$ 1.000000E02, 3.395702E02
$$ 1.000000E02, 3.384038E02
$$ 1.000000E02, 3.372482E02
$$ 1.000000E02, 3.361034E02
$$ 1.000000E02, 3.349693E02
$$ 1.000000E02, 3.338461E02
$$ 1.000000E02, 3.327338E02
$$ 1.000000E02, 3.316322E02
$$ 1.000000E02, 3.305413E02
$$ 1.000000E02, 3.294614E02
$$ 1.000000E02, 3.283922E02
$$ 1.000000E02, 3.273338E02
$$ 1.000000E02, 3.262862E02
$$ 1.000000E02, 3.252494E02
$$ 1.000000E02, 3.242234E02
$$ 1.000000E02, 3.232082E02
$$ 1.000000E02, 3.222038E02
$$ 1.000000E02, 3.212102E02
$$ 1.000000E02, 3.202274E02
$$ 1.000000E02, 3.192554E02
$$ 1.000000E02, 3.182942E02
$$ 1.000000E02, 3.173438E02
$$ 1.000000E02, 3.164042E02
$$ 1.000000E02, 3.154754E02
$$ 1.000000E02, 3.145574E02
$$ 1.000000E02, 3.136502E02
$$ 1.000000E02, 3.127537E02
$$ 1.000000E02, 3.118682E02
$$ 1.000000E02, 3.109933E02
$$ 1.000000E02, 3.101294E02
$$ 1.000000E02, 3.092762E02
$$ 1.000000E02, 3.084338E02
$$ 1.000000E02, 3.076022E02
$$ 1.000000E02, 3.067814E02
$$ 1.000000E02, 3.059714E02
$$ 1.000000E02, 3.051722E02
$$ 1.000000E02, 3.043838E02
$$ 1.000000E02, 3.036062E02
$$ 1.000000E02, 3.028393E02
$$ 1.000000E02, 3.020834E02
$$ 1.000000E02, 3.013382E02
$$ 1.000000E02, 3.006038E02
$$ 1.000000E02, 2.998802E02
$$ 1.000000E02, 2.991674E02
$$ 1.000000E02, 2.984654E02
$$ 1.000000E02, 2.977742E02
$$ 1.000000E02, 2.970938E02
$$ 1.000000E02, 2.964242E02
$$ 1.000000E02, 2.957654E02
$$ 1.000000E02, 2.951174E02
$$ 1.000000E02, 2.944802E02
$$ 1.000000E02, 2.938538E02
$$ 1.000000E02, 2.932382E02
$$ 1.000000E02, 2.926334E02
$$ 1.000000E02, 2.920394E02
$$ 1.000000E02, 2.914562E02
$$ 1.000000E02, 2.908837E02
$$ 1.000000E02, 2.903221E02
$$ 1.000000E02, 2.897714E02
$$ 1.000000E02, 2.892314E02
$$ 1.000000E02, 2.887022E02
$$ 1.000000E02, 2.881838E02
$$ 1.000000E02, 2.876762E02
$$ 1.000000E02, 2.871794E02
$$ 1.000000E02, 2.866934E02
$$ 1.000000E02, 2.862182E02
$$ 1.000000E02, 2.857537E02
$$ 1.000000E02, 2.853002E02
$$ 1.000000E02, 2.848574E02
$$ 1.000000E02, 2.844254E02
$$ 1.000000E02, 2.840042E02
$$ 1.000000E02, 2.835938E02
$$ 1.000000E02, 2.831942E02
$$ 1.000000E02, 2.828054E02
$$ 1.000000E02, 2.824274E02
$$ 1.000000E02, 2.820602E02
$$ 1.000000E02, 2.817038E02
$$ 1.000000E02, 2.813582E02
$$ 1.000000E02, 2.810234E02
$$ 1.000000E02, 2.806994E02
$$ 1.000000E02, 2.803862E02
$$ 1.000000E02, 2.800838E02
$$ 1.000000E02, 2.797922E02
$$ 1.000000E02, 2.795114E02
$$ 1.000000E02, 2.792414E02
$$ 1.000000E02, 2.789822E02
$$ 1.000000E02, 2.787338E02
$$ 1.000000E02, 2.784962E02
$$ 1.000000E02, 2.782694E02
$$ 1.000000E02, 2.780534E02
$$ 1.000000E02, 2.778482E02
$$ 1.000000E02, 2.776538E02
$$ 1.000000E02, 2.774702E02
$$ 1.000000E02, 2.772974E02
$$ 1.000000E02, 2.771354E02
$$ 1.000000E02, 2.769842E02
$$ 1.000000E02, 2.768438E02
$$ 1.000000E02, 2.767142E02
$$ 1.000000E02, 2.765954E02
$$ 1.000000E02, 2.764874E02
$$ 1.000000E02, 2.763902E02
$$ 1.000000E02, 2.763038E02
$$ 1.000000E02, 2.762282E02
$$ 1.000000E02, 2.761634E02
$$ 1.000000E02, 2.761094E02
$$ 1.000000E02, 2.760662E02
$$ 1.000000E02, 2.760338E02
$$ 1.000000E02, 2.760122E02
$$ 1.000000E02, 2.760014E02
$$ 1.000000E02, 2.760014E02
$$ 1.000000E02, 2.760122E02
$$ 1.000000E02, 2.760338E02
$$ 1.000000E02, 2.760662E02
$$ 1.000000E02, 2.761094E02
$$ 1.000000E02, 2.761634E02
$$ 1.000000E02, 2.762282E02
$$ 1.000000E02, 2.763038E02
$$ 1.000000E02, 2.763902E02
$$ 1.000000E02, 2.764874E02
$$ 1.000000E02, 2.765954E02
$$ 1.000000E02, 2.767142E02
$$ 1.000000E02, 2.768438E02
$$ 1.000000E02, 2.769842E02
$$ 1.000000E02, 2.771354E02
$$ 1.000000E02, 2.772974E02
$$ 1.000000E02, 2.774702E02
$$ 1.000000E02, 2.776538E02
$$ 1.000000E02, 2.778482E02
$$ 1.000000E02, 2.780534E02
$$ 1.000000E02, 2.782694E02
$$ 1.000000E02, 2.784962E02
$$ 1.000000E02, 2.787338E02
$$ 1.000000E02, 2.789822E02
$$ 1.000000E02, 2.792414E02
$$ 1.000000E02, 2.795114E02
$$ 1.000000E02, 2.797922E02
$$ 1.000000E02, 2.800838E02
$$ 1.000000E02, 2.803862E02
$$ 1.000000E02, 2.806994E02
$$ 1.000000E02, 2.810234E02
$$ 1.000000E02, 2.813582E02
$$ 1.000000E02, 2.817038E02
$$ 1.000000E02, 2.820602E02
$$ 1.000000E02, 2.824274E02
$$ 1.000000E02, 2.828054E02
$$ 1.000000E02, 2.831942E02
$$ 1.000000E02, 2.835938E02
$$ 1.000000E02, 2.840042E02
$$ 1.000000E02, 2.844254E02
$$ 1.000000E02, 2.848574E02
$$ 1.000000E02, 2.853002E02
$$ 1.000000E02, 2.857537E02
$$ 1.000000E02, 2.862182E02
$$ 1.000000E02, 2.866934E02
$$ 1.000000E02, 2.871794E02
$$ 1.000000E02, 2.876762E02
$$ 1.000000E02, 2.881838E02
$$ 1.000000E02, 2.887022E02
$$ 1.000000E02, 2.892314E02
$$ 1.000000E02, 2.897714E02
$$ 1.000000E02, 2.903221E02
$$ 1.000000E02, 2.908837E02
$$ 1.000000E02, 2.914562E02
$$ 1.000000E02, 2.920394E02
$$ 1.000000E02, 2.926334E02
$$ 1.000000E02, 2.932382E02
$$ 1.000000E02, 2.938538E02
$$ 1.000000E02, 2.944802E02
$$ 1.000000E02, 2.951174E02
$$ 1.000000E02, 2.957654E02
$$ 1.000000E02, 2.964242E02
$$ 1.000000E02, 2.970938E02
$$ 1.000000E02, 2.977742E02
$$ 1.000000E02, 2.984654E02
$$ 1.000000E02, 2.991674E02
$$ 1.000000E02, 2.998802E02
$$ 1.000000E02, 3.006038E02
$$ 1.000000E02, 3.013382E02
$$ 1.000000E02, 3.020834E02
$$ 1.000000E02, 3.028393E02
$$ 1.000000E02, 3.036062E02
$$ 1.000000E02, 3.043838E02
$$ 1.000000E02, 3.051722E02
$$ 1.000000E02, 3.059714E02
$$ 1.000000E02, 3.067814E02
$$ 1.000000E02, 3.076022E02
$$ 1.000000E02, 3.084338E02
$$ 1.000000E02, 3.092762E02
$$ 1.000000E02, 3.101294E02
$$ 1.000000E02, 3.109933E02
$$ 1.000000E02, 3.118682E02
$$ 1.000000E02, 3.127537E02
$$ 1.000000E02, 3.136502E02
$$ 1.000000E02, 3.145574E02
$$ 1.000000E02, 3.154754E02
$$ 1.000000E02, 3.164042E02
$$ 1.000000E02, 3.173438E02
$$ 1.000000E02, 3.182942E02
$$ 1.000000E02, 3.192554E02
$$ 1.000000E02, 3.202274E02
$$ 1.000000E02, 3.212102E02
$$ 1.000000E02, 3.222038E02
$$ 1.000000E02, 3.232082E02
$$ 1.000000E02, 3.242234E02
$$ 1.000000E02, 3.252494E02
$$ 1.000000E02, 3.262862E02
$$ 1.000000E02, 3.273338E02
$$ 1.000000E02, 3.283922E02
$$ 1.000000E02, 3.294614E02
$$ 1.000000E02, 3.305413E02
$$ 1.000000E02, 3.316322E02
$$ 1.000000E02, 3.327338E02
$$ 1.000000E02, 3.338461E02
$$ 1.000000E02, 3.349693E02
$$ 1.000000E02, 3.361034E02
$$ 1.000000E02, 3.372482E02
$$ 1.000000E02, 3.384038E02
$$ 1.000000E02, 3.395702E02
$$ 1.000000E02, 3.407474E02
$$ 1.000000E02, 3.419353E02
$$ 1.000000E02, 3.431342E02
$$ 1.000000E02, 3.443438E02
$$ 1.000000E02, 3.455642E02
$$ 1.000000E02, 3.467954E02
$$ 1.000000E02, 3.480373E02
$$ 1.000000E02, 3.492902E02
$$ 1.000000E02, 3.505538E02
$$ 1.000000E02, 3.518282E02
$$ 1.000000E02, 3.531133E02
$$ 1.000000E02, 3.544094E02
$$ 1.000000E02, 3.557161E02
$$ 1.000000E02, 3.570338E02
$$ 1.000000E02, 3.583622E02
$$ 1.000000E02, 3.597014E02
$$ 1.000000E02, 1.051350E00
$$ 1.000000E02, 2.412150E00
$$ 1.000000E02, 3.783750E00
$$ 1.000000E02, 5.166150E00
$$ 1.000000E02, 6.559350E00
$$ 1.000000E02, 7.963350E00
$$ 1.000000E02, 9.378150E00
$$ 1.000000E02, 1.080375E01
$$ 1.000000E02, 1.224015E01
$$ 1.000000E02, 1.368735E01
$$ 1.000000E02, 1.514535E01
$$ 1.000000E02, 1.661415E01
$$ 1.000000E02, 1.809375E01
$$ 1.000000E02, 1.958415E01
$$ 1.000000E02, 2.108535E01
$$ 1.000000E02, 2.259735E01
$$ 1.000000E02, 2.412015E01
$$ 1.000000E02, 2.565375E01
$$ 1.000000E02, 2.719815E01
$$ 1.000000E02, 2.875335E01
$$ 1.000000E02, 3.031935E01
$$ 1.000000E02, 3.189615E01
$$ 1.000000E02, 3.348375E01
$$ 1.000000E02, 3.508215E01
$$ 1.000000E02, 3.669135E01
$$ 1.000000E02, 3.831135E01
$$ 1.000000E02, 3.994215E01
$$ 1.000000E02, 4.158375E01
$$ 1.000000E02, 4.323615E01
$$ 1.000000E02, 4.489935E01
$$ 1.000000E02, 4.657335E01
$$ 1.000000E02, 4.825815E01
$$ 1.000000E02, 4.995375E01
$$ 1.000000E02, 5.166015E01
$$ 1.000000E02, 5.337735E01
$$ 1.000000E02, 5.510535E01
$$ 1.000000E02, 5.684415E01
$$ 1.000000E02, 5.859375E01
$$ 1.000000E02, 6.035415E01
$$ 1.000000E02, 6.212535E01
$$ 1.000000E02, 6.390735E01
$$ 1.000000E02, 6.570015E01
$$ 1.000000E02, 6.750375E01
$$ 1.000000E02, 6.931815E01
$$ 1.000000E02, 7.114335E01
$$ 1.000000E02, 7.297935E01
$$ 1.000000E02, 7.482615E01
$$ 1.000000E02, 7.668375E01
$$ 1.000000E02, 7.855215E01
$$ 1.000000E02, 8.043135E01
$$ 1.000000E02, 8.232135E01
$$ 1.000000E02, 8.422215E01
$$ 1.000000E02, 8.613375E01
$$ 1.000000E02, 8.805615E01
$$ 1.000000E02, 8.998935E01
$$ 1.000000E02, 9.193335E01
$$ 1.000000E02, 9.388815E01
$$ 1.000000E02, 9.585375E01
$$ 1.000000E02, 9.783015E01
$$ 1.000000E02, 9.981735E01
$$ 1.000000E02, 1.018153E02
$$ 1.000000E02, 1.038241E02
$$ 1.000000E02, 1.058438E02
$$ 1.000000E02, 1.078741E02
$$ 1.000000E02, 1.099154E02
$$ 1.000000E02, 1.119673E02
$$ 1.000000E02, 1.140301E02
$$ 1.000000E02, 1.161037E02
$$ 1.000000E02, 1.181881E02
$$ 1.000000E02, 1.202833E02
$$ 1.000000E02, 1.223893E02
$$ 1.000000E02, 1.245061E02
$$ 1.000000E02, 1.266337E02
$$ 1.000000E02, 1.287722E02
$$ 1.000000E02, 1.309214E02
$$ 1.000000E02, 1.330814E02
$$ 1.000000E02, 1.352521E02
$$ 1.000000E02, 1.374338E02
$$ 1.000000E02, 1.396261E02
$$ 1.000000E02, 1.418293E02
$$ 1.000000E02, 1.440433E02
$$ 1.000000E02, 1.462681E02
$$ 1.000000E02, 1.485038E02
$$ 1.000000E02, 1.507502E02
$$ 1.000000E02, 1.530073E02
$$ 1.000000E02, 1.552753E02
$$ 1.000000E02, 1.575542E02
$$ 1.000000E02, 1.598437E02
$$ 1.000000E02, 1.621441E02
$$ 1.000000E02, 1.644553E02
$$ 1.000000E02, 1.667773E02
$$ 1.000000E02, 1.691101E02
$$ 1.000000E02, 1.714538E02
$$ 1.000000E02, 1.738082E02
$$ 1.000000E02, 1.761733E02
$$ 1.000000E02, 1.785494E02
$$ 1.000000E02, 1.809362E02
$$ 1.000000E02, 1.833337E02
$$ 1.000000E02, 1.857421E02
$$ 1.000000E02, 1.881613E02
$$ 1.000000E02, 1.905913E02
$$ 1.000000E02, 1.930322E02
$$ 1.000000E02, 1.954838E02
$$ 1.000000E02, 1.979462E02
$$ 1.000000E02, 2.004194E02
$$ 1.000000E02, 2.029034E02
$$ 1.000000E02, 2.053982E02
$$ 1.000000E02, 2.079038E02
$$ 1.000000E02, 2.104201E02
$$ 1.000000E02, 2.129473E02
$$ 1.000000E02, 2.154853E02
$$ 1.000000E02, 2.180342E02
$$ 1.000000E02, 2.205938E02
$$ 1.000000E02, 2.231642E02
$$ 1.000000E02, 2.257454E02
$$ 1.000000E02, 2.283374E02
$$ 1.000000E02, 2.309401E02
$$ 1.000000E02, 2.335537E02
$$ 1.000000E02, 2.361781E02
$$ 1.000000E02, 2.388133E02
$$ 1.000000E02, 2.414593E02
$$ 1.000000E02, 2.441161E02
$$ 1.000000E02, 2.467838E02
$$ 1.000000E02, 2.494621E02
$$ 1.000000E02, 2.521513E02
$$ 1.000000E02, 2.548513E02
$$ 1.000000E02, 2.575622E02
$$ 1.000000E02, 2.602838E02
$$ 1.000000E02, 2.630161E02
$$ 1.000000E02, 2.657594E02
$$ 1.000000E02, 2.685133E02
$$ 1.000000E02, 2.712782E02
$$ 1.000000E02, 2.740537E02
$$ 1.000000E02, 2.768402E02
$$ 1.000000E02, 2.796373E02
$$ 1.000000E02, 2.824453E02
$$ 1.000000E02, 2.852642E02
$$ 1.000000E02, 2.880937E02
$$ 1.000000E02, 2.909342E02
$$ 1.000000E02, 2.937853E02
$$ 1.000000E02, 2.966474E02
$$ 1.000000E02, 2.995201E02
$$ 1.000000E02, 3.024038E02
$$ 1.000000E02, 3.052981E02
$$ 1.000000E02, 3.082033E02
$$ 1.000000E02, 3.111193E02
$$ 1.000000E02, 3.140461E02
$$ 1.000000E02, 3.169838E02
$$ 1.000000E02, 3.199322E02
$$ 1.000000E02, 3.228914E02
$$ 1.000000E02, 3.258613E02
$$ 1.000000E02, 3.288422E02
$$ 1.000000E02, 3.318337E02
$$ 1.000000E02, 3.348362E02
$$ 1.000000E02, 3.378493E02
$$ 1.000000E02, 3.408734E02
$$ 1.000000E02, 3.439082E02
$$ 1.000000E02, 3.469537E02
$$ 1.000000E02, 3.500102E02
$$ 1.000000E02, 3.530773E02
$$ 1.000000E02, 3.561554E02
$$ 1.000000E02, 3.592442E02
$$ 1.000000E02, 2.343750E00
$$ 1.000000E02, 5.454150E00
$$ 1.000000E02, 8.575350E00
$$ 1.000000E02, 1.170735E01
$$ 1.000000E02, 1.485015E01
$$ 1.000000E02, 1.800375E01
$$ 1.000000E02, 2.116815E01
$$ 1.000000E02, 2.434335E01
$$ 1.000000E02, 2.752935E01
$$ 1.000000E02, 3.072615E01
$$ 1.000000E02, 3.393375E01
$$ 1.000000E02, 3.715215E01
$$ 1.000000E02, 4.038135E01
$$ 1.000000E02, 4.362135E01
$$ 9.999688E01, 4.687215E01
$$ 9.998754E01, 5.013375E01
$$ 9.997196E01, 5.340615E01
$$ 9.995016E01, 5.668935E01
$$ 9.992213E01, 5.998335E01
$$ 9.988787E01, 6.328815E01
$$ 9.984739E01, 6.660375E01
$$ 9.980069E01, 6.993015E01
$$ 9.974776E01, 7.326735E01
$$ 9.968863E01, 7.661535E01
$$ 9.962328E01, 7.997415E01
$$ 9.955173E01, 8.334375E01
$$ 9.947397E01, 8.672415E01
$$ 9.939002E01, 9.011535E01
$$ 9.929987E01, 9.351735E01
$$ 9.920354E01, 9.693015E01
$$ 9.910102E01, 1.003537E02
$$ 9.899233E01, 1.037881E02
$$ 9.887747E01, 1.072333E02
$$ 9.875646E01, 1.106893E02
$$ 9.862928E01, 1.141562E02
$$ 9.849597E01, 1.176337E02
$$ 9.835651E01, 1.211222E02
$$ 9.821093E01, 1.246213E02
$$ 9.805923E01, 1.281314E02
$$ 9.790142E01, 1.316521E02
$$ 9.773751E01, 1.351837E02
$$ 9.756751E01, 1.387261E02
$$ 9.739143E01, 1.422794E02
$$ 9.720928E01, 1.458434E02
$$ 9.702108E01, 1.494181E02
$$ 9.682683E01, 1.530037E02
$$ 9.662655E01, 1.566001E02
$$ 9.642025E01, 1.602074E02
$$ 9.620794E01, 1.638253E02
$$ 9.598963E01, 1.674542E02
$$ 9.576535E01, 1.710937E02
$$ 9.553510E01, 1.747442E02
$$ 9.529889E01, 1.784053E02
$$ 9.505675E01, 1.820774E02
$$ 9.480868E01, 1.857602E02
$$ 9.455471E01, 1.894537E02
$$ 9.429485E01, 1.931581E02
$$ 9.402911E01, 1.968733E02
$$ 9.375751E01, 2.005993E02
$$ 9.348008E01, 2.043361E02
$$ 9.319681E01, 2.080838E02
$$ 9.290774E01, 2.118421E02
$$ 9.261288E01, 2.156114E02
$$ 9.231226E01, 2.193914E02
$$ 9.200588E01, 2.231821E02
$$ 9.169376E01, 2.269838E02
$$ 9.137594E01, 2.307962E02
$$ 9.105242E01, 2.346193E02
$$ 9.072323E01, 2.384533E02
$$ 9.038838E01, 2.422981E02
$$ 9.004790E01, 2.461537E02
$$ 8.970182E01, 2.500202E02
$$ 8.935014E01, 2.538973E02
$$ 8.899290E01, 2.577854E02
$$ 8.863011E01, 2.616842E02
$$ 8.826180E01, 2.655938E02
$$ 8.788799E01, 2.695142E02
$$ 8.750870E01, 2.734453E02
$$ 8.712396E01, 2.773873E02
$$ 8.673380E01, 2.813401E02
$$ 8.633823E01, 2.853038E02
$$ 8.593728E01, 2.892781E02
$$ 8.553097E01, 2.932634E02
$$ 8.511934E01, 2.972593E02
$$ 8.470240E01, 3.012662E02
$$ 8.428019E01, 3.052837E02
$$ 8.385272E01, 3.093122E02
$$ 8.342003E01, 3.133514E02
$$ 8.298215E01, 3.174013E02
$$ 8.253909E01, 3.214621E02
$$ 8.209089E01, 3.255337E02
$$ 8.163757E01, 3.296161E02
$$ 8.117917E01, 3.337094E02
$$ 8.071571E01, 3.378133E02
$$ 8.024722E01, 3.419282E02
$$ 7.977373E01, 3.460537E02
$$ 7.929527E01, 3.501902E02
$$ 7.881187E01, 3.543373E02
$$ 7.832356E01, 3.584954E02
$$ 7.783037E01, 2.664150E00
$$ 7.733233E01, 6.843750E00
$$ 7.682948E01, 1.103415E01
$$ 7.632183E01, 1.523535E01
$$ 7.580943E01, 1.944735E01
$$ 7.529231E01, 2.367015E01
$$ 7.477049E01, 2.790375E01
$$ 7.424402E01, 3.214815E01
$$ 7.371292E01, 3.640335E01
$$ 7.317723E01, 4.066935E01
$$ 7.263698E01, 4.494615E01
$$ 7.209220E01, 4.923375E01
$$ 7.154293E01, 5.353215E01
$$ 7.098920E01, 5.784135E01
$$ 7.043105E01, 6.216135E01
$$ 6.986851E01, 6.649215E01
$$ 6.930162E01, 7.083375E01
$$ 6.873041E01, 7.518615E01
$$ 6.815492E01, 7.954935E01
$$ 6.757518E01, 8.392335E01
$$ 6.699124E01, 8.830815E01
$$ 6.640311E01, 9.270375E01
$$ 6.581085E01, 9.711015E01
$$ 6.521449E01, 1.015274E02
$$ 6.461407E01, 1.059553E02
$$ 6.400962E01, 1.103941E02
$$ 6.340118E01, 1.148438E02
$$ 6.278880E01, 1.193041E02
$$ 6.217250E01, 1.237754E02
$$ 6.155232E01, 1.282573E02
$$ 6.092832E01, 1.327501E02
$$ 6.030051E01, 1.372537E02
$$ 5.966895E01, 1.417682E02
$$ 5.903367E01, 1.462934E02
$$ 5.839471E01, 1.508293E02
$$ 5.775212E01, 1.553761E02
$$ 5.710592E01, 1.599337E02
$$ 5.645617E01, 1.645021E02
$$ 5.580290E01, 1.690813E02
$$ 5.514615E01, 1.736713E02
$$ 5.448597E01, 1.782721E02
$$ 5.382239E01, 1.828837E02
$$ 5.315546E01, 1.875062E02
$$ 5.248522E01, 1.921393E02
$$ 5.181170E01, 1.967834E02
$$ 5.113496E01, 2.014381E02
$$ 5.045503E01, 2.061038E02
$$ 4.977196E01, 2.107801E02
$$ 4.908579E01, 2.154674E02
$$ 4.839656E01, 2.201653E02
$$ 4.770431E01, 2.248741E02
$$ 4.700910E01, 2.295937E02
$$ 4.631095E01, 2.343241E02
$$ 4.560992E01, 2.390654E02
$$ 4.490604E01, 2.438174E02
$$ 4.419937E01, 2.485802E02
$$ 4.348994E01, 2.533537E02
$$ 4.277781E01, 2.581382E02
$$ 4.206301E01, 2.629333E02
$$ 4.134558E01, 2.677394E02
$$ 4.062559E01, 2.725561E02
$$ 3.990306E01, 2.773837E02
$$ 3.917804E01, 2.822221E02
$$ 3.845058E01, 2.870713E02
$$ 3.772073E01, 2.919314E02
$$ 3.698853E01, 2.968021E02
$$ 3.625402E01, 3.016837E02
$$ 3.551726E01, 3.065761E02
$$ 3.477828E01, 3.114793E02
$$ 3.403713E01, 3.163933E02
$$ 3.329386E01, 3.213182E02
$$ 3.254852E01, 3.262537E02
$$ 3.180115E01, 3.312001E02
$$ 3.105180E01, 3.361573E02
$$ 3.030052E01, 3.411253E02
$$ 2.954734E01, 3.461042E02
$$ 2.879233E01, 3.510937E02
$$ 2.803552E01, 3.560941E02
$$ 2.727697E01, 1.105350E00
$$ 2.651671E01, 6.127350E00
$$ 2.575481E01, 1.116015E01
$$ 2.499130E01, 1.620375E01
$$ 2.422623E01, 2.125815E01
$$ 2.345965E01, 2.632335E01
$$ 2.269161E01, 3.139935E01
$$ 2.192216E01, 3.648615E01
$$ 2.115134E01, 4.158375E01
$$ 2.037920E01, 4.669215E01
$$ 1.960579E01, 5.181135E01
$$ 1.883117E01, 5.694135E01
$$ 1.805537E01, 6.208215E01
$$ 1.727844E01, 6.723375E01
$$ 1.650044E01, 7.239615E01
$$ 1.572140E01, 7.756935E01
$$ 1.494139E01, 8.275335E01
$$ 1.416045E01, 8.794815E01
$$ 1.337863E01, 9.315375E01
$$ 1.259597E01, 9.837015E01
$$ 1.181253E01, 1.035973E02
$$ 1.102835E01, 1.088353E02
$$ 1.024348E01, 1.140841E02
$$ 9.457981E00, 1.193437E02
$$ 8.671888E00, 1.246142E02
$$ 7.885255E00, 1.298954E02
$$ 7.098130E00, 1.351873E02
$$ 6.310563E00, 1.404901E02
$$ 5.522603E00, 1.458037E02
$$ 4.734299E00, 1.511282E02
$$ 3.945700E00, 1.564633E02
$$ 3.156855E00, 1.618093E02
$$ 2.367813E00, 1.671662E02
$$ 1.578624E00, 1.725338E02
$$ 7.893367E-01, 1.779122E02
$$ 0.000000E00, 1.833013E02
$$ 0.000000E00, 9.330067E01
$$ 3.936823E-01, 8.790607E01
$$ 7.873584E-01, 8.251687E01
$$ 1.181022E00, 7.713307E01
$$ 1.574668E00, 7.175467E01
$$ 1.968289E00, 6.638167E01
$$ 2.361880E00, 6.101408E01
$$ 2.755434E00, 5.565187E01
$$ 3.148946E00, 5.029508E01
$$ 3.542408E00, 4.494368E01
$$ 3.935816E00, 3.959767E01
$$ 4.329163E00, 3.425707E01
$$ 4.722442E00, 2.892187E01
$$ 5.115649E00, 2.359208E01
$$ 5.508776E00, 1.826768E01
$$ 5.901818E00, 1.294867E01
$$ 6.294768E00, 7.635075E00
$$ 6.687621E00, 2.326875E00
$$ 7.080370E00, 3.570241E02
$$ 7.473009E00, 3.517267E02
$$ 7.865533E00, 3.464347E02
$$ 8.257935E00, 3.411481E02
$$ 8.650208E00, 3.358669E02
$$ 9.042348E00, 3.305911E02
$$ 9.434347E00, 3.253207E02
$$ 9.826200E00, 3.200557E02
$$ 1.021790E01, 3.147961E02
$$ 1.060944E01, 3.095419E02
$$ 1.100082E01, 3.042931E02
$$ 1.139203E01, 2.990497E02
$$ 1.178306E01, 2.938117E02
$$ 1.217391E01, 2.885791E02
$$ 1.256457E01, 2.833519E02
$$ 1.295503E01, 2.781301E02
$$ 1.334530E01, 2.729137E02
$$ 1.373536E01, 2.677027E02
$$ 1.412520E01, 2.624971E02
$$ 1.451483E01, 2.572969E02
$$ 1.490423E01, 2.521021E02
$$ 1.529340E01, 2.469127E02
$$ 1.568233E01, 2.417287E02
$$ 1.607102E01, 2.365501E02
$$ 1.645946E01, 2.313769E02
$$ 1.684764E01, 2.262091E02
$$ 1.723557E01, 2.210467E02
$$ 1.762323E01, 2.158897E02
$$ 1.801061E01, 2.107381E02
$$ 1.839771E01, 2.055919E02
$$ 1.878453E01, 2.004511E02
$$ 1.917106E01, 1.953157E02
$$ 1.955729E01, 1.901857E02
$$ 1.994322E01, 1.850611E02
$$ 2.032884E01, 1.799419E02
$$ 2.071415E01, 1.748281E02
$$ 2.109913E01, 1.697197E02
$$ 2.148379E01, 1.646167E02
$$ 2.186811E01, 1.595191E02
$$ 2.225209E01, 1.544269E02
$$ 2.263573E01, 1.493401E02
$$ 2.301902E01, 1.442587E02
$$ 2.340195E01, 1.391827E02
$$ 2.378452E01, 1.341121E02
$$ 2.416672E01, 1.290469E02
$$ 2.454855E01, 1.239871E02
$$ 2.492999E01, 1.189327E02
$$ 2.531105E01, 1.138837E02
$$ 2.569172E01, 1.088401E02
$$ 2.607199E01, 1.038019E02
$$ 2.645185E01, 9.876907E01
$$ 2.683131E01, 9.374168E01
$$ 2.721035E01, 8.871967E01
$$ 2.758896E01, 8.370307E01
$$ 2.796715E01, 7.869187E01
$$ 2.834491E01, 7.368607E01
$$ 2.872223E01, 6.868567E01
$$ 2.909910E01, 6.369067E01
$$ 2.947552E01, 5.870107E01
$$ 2.985148E01, 5.371687E01
$$ 3.022698E01, 4.873808E01
$$ 3.060201E01, 4.376467E01
$$ 3.097657E01, 3.879668E01
$$ 3.135065E01, 3.383407E01
$$ 3.172424E01, 2.887687E01
$$ 3.209734E01, 2.392508E01
$$ 3.246995E01, 1.897867E01
$$ 3.284205E01, 1.403768E01
$$ 3.321364E01, 9.102075E00
$$ 3.358471E01, 4.171875E00
$$ 3.395527E01, 3.592471E02
$$ 3.432530E01, 3.543277E02
$$ 3.469480E01, 3.494137E02
$$ 3.506376E01, 3.445051E02
$$ 3.543217E01, 3.396019E02
$$ 3.580004E01, 3.347041E02
$$ 3.616735E01, 3.298117E02
$$ 3.653410E01, 3.249247E02
$$ 3.690029E01, 3.200431E02
$$ 3.726590E01, 3.151669E02
$$ 3.763094E01, 3.102961E02
$$ 3.799539E01, 3.054307E02
$$ 3.835925E01, 3.005707E02
$$ 3.872252E01, 2.957161E02
$$ 3.908519E01, 2.908669E02
$$ 3.944726E01, 2.860231E02
$$ 3.980871E01, 2.811847E02
$$ 4.016954E01, 2.763517E02
$$ 4.052975E01, 2.715241E02
$$ 4.088934E01, 2.667019E02
$$ 4.124829E01, 2.618851E02
$$ 4.160660E01, 2.570737E02
$$ 4.196427E01, 2.522677E02
$$ 4.232128E01, 2.474671E02
$$ 4.267764E01, 2.426719E02
$$ 4.303334E01, 2.378821E02
$$ 4.338837E01, 2.330977E02
$$ 4.374273E01, 2.283187E02
$$ 4.409641E01, 2.235451E02
$$ 4.444941E01, 2.187769E02
$$ 4.480172E01, 2.140141E02
$$ 4.515334E01, 2.092567E02
$$ 4.550425E01, 2.045047E02
$$ 4.585446E01, 1.997581E02
$$ 4.620396E01, 1.950169E02
$$ 4.655274E01, 1.902811E02
$$ 4.690080E01, 1.855507E02
$$ 4.724814E01, 1.808257E02
$$ 4.759474E01, 1.761061E02
$$ 4.794060E01, 1.713919E02
$$ 4.828573E01, 1.666831E02
$$ 4.863010E01, 1.619797E02
$$ 4.897372E01, 1.572817E02
$$ 4.931658E01, 1.525891E02
$$ 4.965867E01, 1.479019E02
$$ 5.000000E01, 1.432201E02
$$ 5.034055E01, 1.385437E02
$$ 5.068032E01, 1.338727E02
$$ 5.101931E01, 1.292071E02
$$ 5.135750E01, 1.245469E02
$$ 5.169490E01, 1.198921E02
$$ 5.203150E01, 1.152427E02
$$ 5.236729E01, 1.105987E02
$$ 5.270227E01, 1.059601E02
$$ 5.303643E01, 1.013269E02
$$ 5.336978E01, 9.669908E01
$$ 5.370229E01, 9.207667E01
$$ 5.403397E01, 8.745968E01
$$ 5.436481E01, 8.284807E01
$$ 5.469482E01, 7.824187E01
$$ 5.502397E01, 7.364107E01
$$ 5.535227E01, 6.904567E01
$$ 5.567971E01, 6.445567E01
$$ 5.600629E01, 5.987107E01
$$ 5.633201E01, 5.529187E01
$$ 5.665684E01, 5.071807E01
$$ 5.698081E01, 4.614968E01
$$ 5.730388E01, 4.158668E01
$$ 5.762607E01, 3.702907E01
$$ 5.794737E01, 3.247687E01
$$ 5.826777E01, 2.793007E01
$$ 5.858726E01, 2.338867E01
$$ 5.890585E01, 1.885268E01
$$ 5.922353E01, 1.432207E01
$$ 5.954028E01, 9.796875E00
$$ 5.985612E01, 5.277075E00
$$ 6.017102E01, 7.626750E-01
$$ 6.048499E01, 3.562537E02
$$ 6.079803E01, 3.517501E02
$$ 6.111012E01, 3.472519E02
$$ 6.142127E01, 3.427591E02
$$ 6.173147E01, 3.382717E02
$$ 6.204070E01, 3.337897E02
$$ 6.234898E01, 3.293131E02
$$ 6.265629E01, 3.248419E02
$$ 6.296263E01, 3.203761E02
$$ 6.326799E01, 3.159157E02
$$ 6.357237E01, 3.114607E02
$$ 6.387577E01, 3.070111E02
$$ 6.417818E01, 3.025669E02
$$ 6.447959E01, 2.981281E02
$$ 6.478001E01, 2.936947E02
$$ 6.507941E01, 2.892667E02
$$ 6.537782E01, 2.848441E02
$$ 6.567520E01, 2.804269E02
$$ 6.597157E01, 2.760151E02
$$ 6.626692E01, 2.716087E02
$$ 6.656124E01, 2.672077E02
$$ 6.685453E01, 2.628121E02
$$ 6.714678E01, 2.584219E02
$$ 6.743799E01, 2.540371E02
$$ 6.772816E01, 2.496577E02
$$ 6.801727E01, 2.452837E02
$$ 6.830534E01, 2.409151E02
$$ 6.859234E01, 2.365519E02
$$ 6.887828E01, 2.321941E02
$$ 6.916315E01, 2.278417E02
$$ 6.944696E01, 2.234947E02
$$ 6.972968E01, 2.191531E02
$$ 7.001132E01, 2.148169E02
$$ 7.029188E01, 2.104861E02
$$ 7.057135E01, 2.061607E02
$$ 7.084973E01, 2.018407E02
$$ 7.112701E01, 1.975261E02
$$ 7.140318E01, 1.932169E02
$$ 7.167825E01, 1.889131E02
$$ 7.195221E01, 1.846147E02
$$ 7.222505E01, 1.803217E02
$$ 7.249678E01, 1.760341E02
$$ 7.276738E01, 1.717519E02
$$ 7.303685E01, 1.674751E02
$$ 7.330519E01, 1.632037E02
$$ 7.357239E01, 1.589377E02
$$ 7.383845E01, 1.546771E02
$$ 7.410337E01, 1.504219E02
$$ 7.436714E01, 1.461721E02
$$ 7.462976E01, 1.419277E02
$$ 7.489122E01, 1.376887E02
$$ 7.515152E01, 1.334551E02
$$ 7.541066E01, 1.292269E02
$$ 7.566863E01, 1.250041E02
$$ 7.592542E01, 1.207867E02
$$ 7.618104E01, 1.165747E02
$$ 7.643548E01, 1.123681E02
$$ 7.668873E01, 1.081669E02
$$ 7.694079E01, 1.039711E02
$$ 7.719167E01, 9.978067E01
$$ 7.744134E01, 9.559567E01
$$ 7.768981E01, 9.141607E01
$$ 7.793709E01, 8.724187E01
$$ 7.818315E01, 8.307307E01
$$ 7.842800E01, 7.890967E01
$$ 7.867163E01, 7.475167E01
$$ 7.891405E01, 7.059908E01
$$ 7.915524E01, 6.645187E01
$$ 7.939521E01, 6.231007E01
$$ 7.963395E01, 5.817368E01
$$ 7.987145E01, 5.404267E01
$$ 8.010771E01, 4.991708E01
$$ 8.034273E01, 4.579688E01
$$ 8.057651E01, 4.168207E01
$$ 8.080904E01, 3.757267E01
$$ 8.104031E01, 3.346867E01
$$ 8.127033E01, 2.937007E01
$$ 8.149909E01, 2.527687E01
$$ 8.172659E01, 2.118908E01
$$ 8.195282E01, 1.710667E01
$$ 8.217778E01, 1.302967E01
$$ 8.240147E01, 8.958075E00
$$ 8.262388E01, 4.891875E00
$$ 8.284501E01, 8.310750E-01
$$ 8.306485E01, 3.567757E02
$$ 8.328341E01, 3.527257E02
$$ 8.350068E01, 3.486811E02
$$ 8.371665E01, 3.446419E02
$$ 8.393132E01, 3.406081E02
$$ 8.414470E01, 3.365797E02
$$ 8.435677E01, 3.325567E02
$$ 8.456753E01, 3.285391E02
$$ 8.477698E01, 3.245269E02
$$ 8.498512E01, 3.205201E02
$$ 8.519194E01, 3.165187E02
$$ 8.539744E01, 3.125227E02
$$ 8.560162E01, 3.085321E02
$$ 8.580447E01, 3.045469E02
$$ 8.600599E01, 3.005671E02
$$ 8.620618E01, 2.965927E02
$$ 8.640503E01, 2.926237E02
$$ 8.660254E01, 2.886601E02
$$ 8.679871E01, 2.847019E02
$$ 8.699354E01, 2.807491E02
$$ 8.718701E01, 2.768017E02
$$ 8.737914E01, 2.728597E02
$$ 8.756991E01, 2.689231E02
$$ 8.775932E01, 2.649919E02
$$ 8.794738E01, 2.610661E02
$$ 8.813407E01, 2.571457E02
$$ 8.831939E01, 2.532307E02
$$ 8.850335E01, 2.493211E02
$$ 8.868593E01, 2.454169E02
$$ 8.886714E01, 2.415181E02
$$ 8.904697E01, 2.376247E02
$$ 8.922542E01, 2.337367E02
$$ 8.940249E01, 2.298541E02
$$ 8.957818E01, 2.259769E02
$$ 8.975247E01, 2.221051E02
$$ 8.992538E01, 2.182387E02
$$ 9.009689E01, 2.143777E02
$$ 9.026700E01, 2.105221E02
$$ 9.043572E01, 2.066719E02
$$ 9.060303E01, 2.028271E02
$$ 9.076894E01, 1.989877E02
$$ 9.093344E01, 1.951537E02
$$ 9.109653E01, 1.913251E02
$$ 9.125822E01, 1.875019E02
$$ 9.141848E01, 1.836841E02
$$ 9.157733E01, 1.798717E02
$$ 9.173476E01, 1.760647E02
$$ 9.189077E01, 1.722631E02
$$ 9.204536E01, 1.684669E02
$$ 9.219852E01, 1.646761E02
$$ 9.235024E01, 1.608907E02
$$ 9.250054E01, 1.571107E02
$$ 9.264941E01, 1.533361E02
$$ 9.279684E01, 1.495669E02
$$ 9.294283E01, 1.458031E02
$$ 9.308737E01, 1.420447E02
$$ 9.323048E01, 1.382917E02
$$ 9.337214E01, 1.345441E02
$$ 9.351236E01, 1.308019E02
$$ 9.365112E01, 1.270651E02
$$ 9.378844E01, 1.233337E02
$$ 9.392430E01, 1.196077E02
$$ 9.405870E01, 1.158871E02
$$ 9.419165E01, 1.121719E02
$$ 9.432314E01, 1.084621E02
$$ 9.445316E01, 1.047577E02
$$ 9.458172E01, 1.010587E02
$$ 9.470882E01, 9.736507E01
$$ 9.483445E01, 9.367687E01
$$ 9.495861E01, 8.999407E01
$$ 9.508129E01, 8.631668E01
$$ 9.520250E01, 8.264468E01
$$ 9.532224E01, 7.897807E01
$$ 9.544050E01, 7.531687E01
$$ 9.555728E01, 7.166107E01
$$ 9.567258E01, 6.801067E01
$$ 9.578640E01, 6.436568E01
$$ 9.589873E01, 6.072607E01
$$ 9.600957E01, 5.709187E01
$$ 9.611893E01, 5.346308E01
$$ 9.622680E01, 4.983967E01
$$ 9.633318E01, 4.622167E01
$$ 9.643806E01, 4.260907E01
$$ 9.654145E01, 3.900188E01
$$ 9.664334E01, 3.540008E01
$$ 9.674374E01, 3.180367E01
$$ 9.684263E01, 2.821267E01
$$ 9.694003E01, 2.462707E01
$$ 9.703592E01, 2.104688E01
$$ 9.713031E01, 1.747207E01
$$ 9.722319E01, 1.390267E01
$$ 9.731457E01, 1.033867E01
$$ 9.740443E01, 6.780075E00
$$ 9.749279E01, 3.226875E00
$$ 9.757964E01, 3.596791E02
$$ 9.766497E01, 3.561367E02
$$ 9.774879E01, 3.525997E02
$$ 9.783110E01, 3.490681E02
$$ 9.791189E01, 3.455419E02
$$ 9.799116E01, 3.420211E02
$$ 9.806892E01, 3.385057E02
$$ 9.814515E01, 3.349957E02
$$ 9.821986E01, 3.314911E02
$$ 9.829305E01, 3.279919E02
$$ 9.836472E01, 3.244981E02
$$ 9.843486E01, 3.210097E02
$$ 9.850348E01, 3.175267E02
$$ 9.857057E01, 3.140491E02
$$ 9.863613E01, 3.105769E02
$$ 9.870016E01, 3.071101E02
$$ 9.876267E01, 3.036487E02
$$ 9.882364E01, 3.001927E02
$$ 9.888308E01, 2.967421E02
$$ 9.894099E01, 2.932969E02
$$ 9.899737E01, 2.898571E02
$$ 9.905221E01, 2.864227E02
$$ 9.910551E01, 2.829937E02
$$ 9.915728E01, 2.795701E02
$$ 9.920752E01, 2.761519E02
$$ 9.925621E01, 2.727391E02
$$ 9.930337E01, 2.693317E02
$$ 9.934899E01, 2.659297E02
$$ 9.939307E01, 2.625331E02
$$ 9.943561E01, 2.591419E02
$$ 9.947660E01, 2.557561E02
$$ 9.951606E01, 2.523757E02
$$ 9.955397E01, 2.490007E02
$$ 9.959034E01, 2.456311E02
$$ 9.962517E01, 2.422669E02
$$ 9.965845E01, 2.389081E02
$$ 9.969019E01, 2.355547E02
$$ 9.972038E01, 2.322067E02
$$ 9.974903E01, 2.288641E02
$$ 9.977613E01, 2.255269E02
$$ 9.980168E01, 2.221951E02
$$ 9.982569E01, 2.188687E02
$$ 9.984815E01, 2.155477E02
$$ 9.986906E01, 2.122321E02
$$ 9.988843E01, 2.089219E02
$$ 9.990625E01, 2.056171E02
$$ 9.992252E01, 2.023177E02
$$ 9.993724E01, 1.990237E02
$$ 9.995041E01, 1.957351E02
$$ 9.996203E01, 1.924519E02
$$ 9.997210E01, 1.891741E02
$$ 9.998063E01, 1.859017E02
$$ 9.998760E01, 1.826347E02
$$ 9.999303E01, 1.793731E02
$$ 9.999690E01, 1.761169E02
$$ 9.999923E01, 1.728661E02
$$ 1.000000E02, 1.696207E02
$$ 1.000000E02, 1.663807E02
$$ 1.000000E02, 1.631461E02
$$ 1.000000E02, 1.599169E02
$$ 1.000000E02, 1.566931E02
$$ 1.000000E02, 1.534747E02
$$ 1.000000E02, 1.502617E02
$$ 1.000000E02, 1.470541E02
$$ 1.000000E02, 1.438519E02
$$ 1.000000E02, 1.406551E02
$$ 1.000000E02, 1.374637E02
$$ 1.000000E02, 1.342777E02
$$ 1.000000E02, 1.310971E02
$$ 1.000000E02, 1.279219E02
$$ 1.000000E02, 1.247521E02
$$ 1.000000E02, 1.215877E02
$$ 1.000000E02, 1.184287E02
$$ 1.000000E02, 1.152751E02
$$ 1.000000E02, 1.121269E02
$$ 1.000000E02, 1.089841E02
$$ 1.000000E02, 1.058467E02
$$ 1.000000E02, 1.027147E02
$$ 1.000000E02, 9.958808E01
$$ 1.000000E02, 9.646687E01
$$ 1.000000E02, 9.335107E01
$$ 1.000000E02, 9.024067E01
$$ 1.000000E02, 8.713567E01
$$ 1.000000E02, 8.403608E01
$$ 1.000000E02, 8.094188E01
$$ 1.000000E02, 7.785307E01
$$ 1.000000E02, 7.476967E01
$$ 1.000000E02, 7.169167E01
$$ 1.000000E02, 6.861908E01
$$ 1.000000E02, 6.555187E01
$$ 1.000000E02, 6.249007E01
$$ 1.000000E02, 5.943367E01
$$ 1.000000E02, 5.638267E01
$$ 1.000000E02, 5.333708E01
$$ 1.000000E02, 5.029688E01
$$ 1.000000E02, 4.726207E01
$$ 1.000000E02, 4.423267E01
$$ 1.000000E02, 4.120867E01
$$ 1.000000E02, 3.819007E01
$$ 1.000000E02, 3.517687E01
$$ 1.000000E02, 3.216908E01
$$ 1.000000E02, 2.916667E01
$$ 1.000000E02, 2.616967E01
$$ 1.000000E02, 2.317807E01
$$ 1.000000E02, 2.019187E01
$$ 1.000000E02, 1.721107E01
$$ 1.000000E02, 1.423568E01
$$ 1.000000E02, 1.126567E01
$$ 1.000000E02, 8.301075E00
$$ 1.000000E02, 5.341875E00
$$ 1.000000E02, 2.388075E00
$$ 1.000000E02, 3.594397E02
$$ 1.000000E02, 3.564967E02
$$ 1.000000E02, 3.535591E02
$$ 1.000000E02, 3.506269E02
$$ 1.000000E02, 3.477001E02
$$ 1.000000E02, 3.447787E02
$$ 1.000000E02, 3.418627E02
$$ 1.000000E02, 3.389521E02
$$ 1.000000E02, 3.360469E02
$$ 1.000000E02, 3.331471E02
$$ 1.000000E02, 3.302527E02
$$ 1.000000E02, 3.273637E02
$$ 1.000000E02, 3.244801E02
$$ 1.000000E02, 3.216019E02
$$ 1.000000E02, 3.187291E02
$$ 1.000000E02, 3.158617E02
$$ 1.000000E02, 3.129997E02
$$ 1.000000E02, 3.101431E02
$$ 1.000000E02, 3.072919E02
$$ 1.000000E02, 3.044461E02
$$ 1.000000E02, 3.016057E02
$$ 1.000000E02, 2.987707E02
$$ 1.000000E02, 2.959411E02
$$ 1.000000E02, 2.931169E02
$$ 1.000000E02, 2.902981E02
$$ 1.000000E02, 2.874847E02
$$ 1.000000E02, 2.846767E02
$$ 1.000000E02, 2.818741E02
$$ 1.000000E02, 2.790769E02
$$ 1.000000E02, 2.762851E02
$$ 1.000000E02, 2.734987E02
$$ 1.000000E02, 2.707177E02
$$ 1.000000E02, 2.679421E02
$$ 1.000000E02, 2.651719E02
$$ 1.000000E02, 2.624071E02
$$ 1.000000E02, 2.596477E02
$$ 1.000000E02, 2.568937E02
$$ 1.000000E02, 2.541451E02
$$ 1.000000E02, 2.514019E02
$$ 1.000000E02, 2.486641E02
$$ 1.000000E02, 2.459317E02
$$ 1.000000E02, 2.432047E02
$$ 1.000000E02, 2.404831E02
$$ 1.000000E02, 2.377669E02
$$ 1.000000E02, 2.350561E02
$$ 1.000000E02, 2.323507E02
$$ 1.000000E02, 2.296507E02
$$ 1.000000E02, 2.269561E02
$$ 1.000000E02, 2.242669E02
$$ 1.000000E02, 2.215831E02
$$ 1.000000E02, 2.189047E02
$$ 1.000000E02, 2.162317E02
$$ 1.000000E02, 2.135641E02
$$ 1.000000E02, 2.109019E02
$$ 1.000000E02, 2.082451E02
$$ 1.000000E02, 2.055937E02
$$ 1.000000E02, 2.029477E02
$$ 1.000000E02, 2.003071E02
$$ 1.000000E02, 1.976719E02
$$ 1.000000E02, 1.950421E02
$$ 1.000000E02, 1.924177E02
$$ 1.000000E02, 1.897987E02
$$ 1.000000E02, 1.871851E02
$$ 1.000000E02, 1.845769E02
$$ 1.000000E02, 1.819741E02
$$ 1.000000E02, 1.793767E02
$$ 1.000000E02, 1.767847E02
$$ 1.000000E02, 1.741981E02
$$ 1.000000E02, 1.716169E02
$$ 1.000000E02, 1.690411E02
$$ 1.000000E02, 1.664707E02
$$ 1.000000E02, 1.639057E02
$$ 1.000000E02, 1.613461E02
$$ 1.000000E02, 1.587919E02
$$ 1.000000E02, 1.562431E02
$$ 1.000000E02, 1.536997E02
$$ 1.000000E02, 1.511617E02
$$ 1.000000E02, 1.486291E02
$$ 1.000000E02, 1.461019E02
$$ 1.000000E02, 1.435801E02
$$ 1.000000E02, 1.410637E02
$$ 1.000000E02, 1.385527E02
$$ 1.000000E02, 1.360471E02
$$ 1.000000E02, 1.335469E02
$$ 1.000000E02, 1.310521E02
$$ 1.000000E02, 1.285627E02
$$ 1.000000E02, 1.260787E02
$$ 1.000000E02, 1.236001E02
$$ 1.000000E02, 1.211269E02
$$ 1.000000E02, 1.186591E02
$$ 1.000000E02, 1.161967E02
$$ 1.000000E02, 1.137397E02
$$ 1.000000E02, 1.112881E02
$$ 1.000000E02, 1.088419E02
$$ 1.000000E02, 1.064011E02
$$ 1.000000E02, 1.039657E02
$$ 1.000000E02, 1.015357E02
$$ 1.000000E02, 9.911107E01
$$ 1.000000E02, 9.669187E01
$$ 1.000000E02, 9.427807E01
$$ 1.000000E02, 9.186968E01
$$ 1.000000E02, 8.946667E01
$$ 1.000000E02, 8.706908E01
$$ 1.000000E02, 8.467687E01
$$ 1.000000E02, 8.229008E01
$$ 1.000000E02, 7.990868E01
$$ 1.000000E02, 7.753268E01
$$ 1.000000E02, 7.516207E01
$$ 1.000000E02, 7.279687E01
$$ 1.000000E02, 7.043707E01
$$ 1.000000E02, 6.808267E01
$$ 1.000000E02, 6.573368E01
$$ 1.000000E02, 6.339007E01
$$ 1.000000E02, 6.105188E01
$$ 1.000000E02, 5.871907E01
$$ 1.000000E02, 5.639168E01
$$ 1.000000E02, 5.406967E01
$$ 1.000000E02, 5.175308E01
$$ 1.000000E02, 4.944187E01
$$ 1.000000E02, 4.713607E01
$$ 1.000000E02, 4.483567E01
$$ 1.000000E02, 4.254067E01
$$ 1.000000E02, 4.025107E01
$$ 1.000000E02, 3.796687E01
$$ 1.000000E02, 3.568807E01
$$ 1.000000E02, 3.341467E01
$$ 1.000000E02, 3.114668E01
$$ 1.000000E02, 2.888407E01
$$ 1.000000E02, 2.662687E01
$$ 1.000000E02, 2.437507E01
$$ 1.000000E02, 2.212867E01
$$ 1.000000E02, 1.988768E01
$$ 1.000000E02, 1.765207E01
$$ 1.000000E02, 1.542188E01
$$ 1.000000E02, 1.319707E01
$$ 1.000000E02, 1.097767E01
$$ 1.000000E02, 8.763675E00
$$ 1.000000E02, 6.555075E00
$$ 1.000000E02, 4.351875E00
$$ 1.000000E02, 2.154075E00
$$ 1.000000E02, 3.599617E02
$$ 1.000000E02, 3.577747E02
$$ 1.000000E02, 3.555931E02
$$ 1.000000E02, 3.534169E02
$$ 1.000000E02, 3.512461E02
$$ 1.000000E02, 3.490807E02
$$ 1.000000E02, 3.469207E02
$$ 1.000000E02, 3.447661E02
$$ 1.000000E02, 3.426169E02
$$ 1.000000E02, 3.404731E02
$$ 1.000000E02, 3.383347E02
$$ 1.000000E02, 3.362017E02
$$ 1.000000E02, 3.340741E02
$$ 1.000000E02, 3.319519E02
$$ 1.000000E02, 3.298351E02
$$ 1.000000E02, 3.277237E02
$$ 1.000000E02, 3.256177E02
$$ 1.000000E02, 3.235171E02
$$ 1.000000E02, 3.214219E02
$$ 1.000000E02, 3.193321E02
$$ 1.000000E02, 3.172477E02
$$ 1.000000E02, 3.151687E02
$$ 1.000000E02, 3.130951E02
$$ 1.000000E02, 3.110269E02
$$ 1.000000E02, 3.089641E02
$$ 1.000000E02, 3.069067E02
$$ 1.000000E02, 3.048547E02
$$ 1.000000E02, 3.028081E02
$$ 1.000000E02, 3.007669E02
$$ 1.000000E02, 2.987311E02
$$ 1.000000E02, 2.967007E02
$$ 1.000000E02, 2.946757E02
$$ 1.000000E02, 2.926561E02
$$ 1.000000E02, 2.906419E02
$$ 1.000000E02, 2.886331E02
$$ 1.000000E02, 2.866297E02
$$ 1.000000E02, 2.846317E02
$$ 1.000000E02, 2.826391E02
$$ 1.000000E02, 2.806519E02
$$ 1.000000E02, 2.786701E02
$$ 1.000000E02, 2.766937E02
$$ 1.000000E02, 2.747227E02
$$ 1.000000E02, 2.727571E02
$$ 1.000000E02, 2.707969E02
$$ 1.000000E02, 2.688421E02
$$ 1.000000E02, 2.668927E02
$$ 1.000000E02, 2.649487E02
$$ 1.000000E02, 2.630101E02
$$ 1.000000E02, 2.610769E02
$$ 1.000000E02, 2.591491E02
$$ 1.000000E02, 2.572267E02
$$ 1.000000E02, 2.553097E02
$$ 1.000000E02, 2.533981E02
$$ 1.000000E02, 2.514919E02
$$ 1.000000E02, 2.495911E02
$$ 1.000000E02, 2.476957E02
$$ 1.000000E02, 2.458057E02
$$ 1.000000E02, 2.439211E02
$$ 1.000000E02, 2.420419E02
$$ 1.000000E02, 2.401681E02
$$ 1.000000E02, 2.382997E02
$$ 1.000000E02, 2.364367E02
$$ 1.000000E02, 2.345791E02
$$ 1.000000E02, 2.327269E02
$$ 1.000000E02, 2.308801E02
$$ 1.000000E02, 2.290387E02
$$ 1.000000E02, 2.272027E02
$$ 1.000000E02, 2.253721E02
$$ 1.000000E02, 2.235469E02
$$ 1.000000E02, 2.217271E02
$$ 1.000000E02, 2.199127E02
$$ 1.000000E02, 2.181037E02
$$ 1.000000E02, 2.163001E02
$$ 1.000000E02, 2.145019E02
$$ 1.000000E02, 2.127091E02
$$ 1.000000E02, 2.109217E02
$$ 1.000000E02, 2.091397E02
$$ 1.000000E02, 2.073631E02
$$ 1.000000E02, 2.055919E02
$$ 1.000000E02, 2.038261E02
$$ 1.000000E02, 2.020657E02
$$ 1.000000E02, 2.003107E02
$$ 1.000000E02, 1.985611E02
$$ 1.000000E02, 1.968169E02
$$ 1.000000E02, 1.950781E02
$$ 1.000000E02, 1.933447E02
$$ 1.000000E02, 1.916167E02
$$ 1.000000E02, 1.898941E02
$$ 1.000000E02, 1.881769E02
$$ 1.000000E02, 1.864651E02
$$ 1.000000E02, 1.847587E02
$$ 1.000000E02, 1.830577E02
$$ 1.000000E02, 1.813621E02
$$ 1.000000E02, 1.796719E02
$$ 1.000000E02, 1.779871E02
$$ 1.000000E02, 1.763077E02
$$ 1.000000E02, 1.746337E02
$$ 1.000000E02, 1.729651E02
$$ 1.000000E02, 1.713019E02
$$ 1.000000E02, 1.696441E02
$$ 1.000000E02, 1.679917E02
$$ 1.000000E02, 1.663447E02
$$ 1.000000E02, 1.647031E02
$$ 1.000000E02, 1.630669E02
$$ 1.000000E02, 1.614361E02
$$ 1.000000E02, 1.598107E02
$$ 1.000000E02, 1.581907E02
$$ 1.000000E02, 1.565761E02
$$ 1.000000E02, 1.549669E02
$$ 1.000000E02, 1.533631E02
$$ 1.000000E02, 1.517647E02
$$ 1.000000E02, 1.501717E02
$$ 1.000000E02, 1.485841E02
$$ 1.000000E02, 1.470019E02
$$ 1.000000E02, 1.454251E02
$$ 1.000000E02, 1.438537E02
$$ 1.000000E02, 1.422877E02
$$ 1.000000E02, 1.407271E02
$$ 1.000000E02, 1.391719E02
$$ 1.000000E02, 1.376221E02
$$ 1.000000E02, 1.360777E02
$$ 1.000000E02, 1.345387E02
$$ 1.000000E02, 1.330051E02
$$ 1.000000E02, 1.314769E02
$$ 1.000000E02, 1.299541E02
$$ 1.000000E02, 1.284367E02
$$ 1.000000E02, 1.269247E02
$$ 1.000000E02, 1.254181E02
$$ 1.000000E02, 1.239169E02
$$ 1.000000E02, 1.224211E02
$$ 1.000000E02, 1.209307E02
$$ 1.000000E02, 1.194457E02
$$ 1.000000E02, 1.179661E02
$$ 1.000000E02, 1.164919E02
$$ 1.000000E02, 1.150231E02
$$ 1.000000E02, 1.135597E02
$$ 1.000000E02, 1.121017E02
$$ 1.000000E02, 1.106491E02
$$ 1.000000E02, 1.092019E02
$$ 1.000000E02, 1.077601E02
$$ 1.000000E02, 1.063237E02
$$ 1.000000E02, 1.048927E02
$$ 1.000000E02, 1.034671E02
$$ 1.000000E02, 1.020469E02
$$ 1.000000E02, 1.006321E02
$$ 1.000000E02, 9.922267E01
$$ 1.000000E02, 9.781867E01
$$ 1.000000E02, 9.642008E01
$$ 1.000000E02, 9.502687E01
$$ 1.000000E02, 9.363907E01
$$ 1.000000E02, 9.225667E01
$$ 1.000000E02, 9.087967E01
$$ 1.000000E02, 8.950807E01
$$ 1.000000E02, 8.814188E01
$$ 1.000000E02, 8.678107E01
$$ 1.000000E02, 8.542567E01
$$ 1.000000E02, 8.407567E01
$$ 1.000000E02, 8.273107E01
$$ 1.000000E02, 8.139188E01
$$ 1.000000E02, 8.005807E01
$$ 1.000000E02, 7.872967E01
$$ 1.000000E02, 7.740667E01
$$ 1.000000E02, 7.608907E01
$$ 1.000000E02, 7.477687E01
$$ 1.000000E02, 7.347007E01
$$ 1.000000E02, 7.216868E01
$$ 1.000000E02, 7.087268E01
$$ 1.000000E02, 6.958208E01
$$ 1.000000E02, 6.829688E01
$$ 1.000000E02, 6.701708E01
$$ 1.000000E02, 6.574267E01
$$ 1.000000E02, 6.447367E01
$$ 1.000000E02, 6.321007E01
$$ 1.000000E02, 6.195188E01
$$ 1.000000E02, 6.069907E01
$$ 1.000000E02, 5.945167E01
$$ 1.000000E02, 5.820968E01
$$ 1.000000E02, 5.697307E01
$$ 1.000000E02, 5.574187E01
$$ 1.000000E02, 5.451608E01
$$ 1.000000E02, 5.329567E01
$$ 1.000000E02, 5.208067E01
$$ 1.000000E02, 5.087107E01
$$ 1.000000E02, 4.966687E01
$$ 1.000000E02, 4.846808E01
$$ 1.000000E02, 4.727468E01
$$ 1.000000E02, 4.608667E01
$$ 1.000000E02, 4.490408E01
$$ 1.000000E02, 4.372688E01
$$ 1.000000E02, 4.255507E01
$$ 1.000000E02, 4.138867E01
$$ 1.000000E02, 4.022767E01
$$ 1.000000E02, 3.907207E01
$$ 1.000000E02, 3.792187E01
$$ 1.000000E02, 3.677707E01
$$ 1.000000E02, 3.563767E01
$$ 1.000000E02, 3.450367E01
$$ 1.000000E02, 3.337507E01
$$ 1.000000E02, 3.225188E01
$$ 1.000000E02, 3.113407E01
$$ 1.000000E02, 3.002167E01
$$ 1.000000E02, 2.891467E01
$$ 1.000000E02, 2.781307E01
$$ 1.000000E02, 2.671688E01
$$ 1.000000E02, 2.562607E01
$$ 1.000000E02, 2.454067E01
$$ 1.000000E02, 2.346067E01
$$ 1.000000E02, 2.238608E01
$$ 1.000000E02, 2.131687E01
$$ 1.000000E02, 2.025307E01
$$ 1.000000E02, 1.919467E01
$$ 1.000000E02, 1.814167E01
$$ 1.000000E02, 1.709407E01
$$ 1.000000E02, 1.605187E01
$$ 1.000000E02, 1.501507E01
$$ 1.000000E02, 1.398367E01
$$ 1.000000E02, 1.295768E01
$$ 1.000000E02, 1.193707E01
$$ 1.000000E02, 1.092188E01
$$ 1.000000E02, 9.912075E00
$$ 1.000000E02, 8.907675E00
$$ 1.000000E02, 7.908675E00
$$ 1.000000E02, 6.915075E00
$$ 1.000000E02, 5.926875E00
$$ 1.000000E02, 4.944075E00
$$ 1.000000E02, 3.966675E00
$$ 1.000000E02, 2.994675E00
$$ 1.000000E02, 2.028075E00
$$ 1.000000E02, 1.066875E00
$$ 1.000000E02, 1.110750E-01
$$ 1.000000E02, 3.591607E02
$$ 1.000000E02, 3.582157E02
$$ 1.000000E02, 3.572761E02
$$ 1.000000E02, 3.563419E02
$$ 1.000000E02, 3.554131E02
$$ 1.000000E02, 3.544897E02
$$ 1.000000E02, 3.535717E02
$$ 1.000000E02, 3.526591E02
$$ 1.000000E02, 3.517519E02
$$ 1.000000E02, 3.508501E02
$$ 1.000000E02, 3.499537E02
$$ 1.000000E02, 3.490627E02
$$ 1.000000E02, 3.481771E02
$$ 1.000000E02, 3.472969E02
$$ 1.000000E02, 3.464221E02
$$ 1.000000E02, 3.455527E02
$$ 1.000000E02, 3.446887E02
$$ 1.000000E02, 3.438301E02
$$ 1.000000E02, 3.429769E02
$$ 1.000000E02, 3.421291E02
$$ 1.000000E02, 3.412867E02
$$ 1.000000E02, 3.404497E02
$$ 1.000000E02, 3.396181E02
$$ 1.000000E02, 3.387919E02
$$ 1.000000E02, 3.379711E02
$$ 1.000000E02, 3.371557E02
$$ 1.000000E02, 3.363457E02
$$ 1.000000E02, 3.355411E02
$$ 1.000000E02, 3.347419E02
$$ 1.000000E02, 3.339481E02
$$ 1.000000E02, 3.331597E02
$$ 1.000000E02, 3.323767E02
$$ 1.000000E02, 3.315991E02
$$ 1.000000E02, 3.308269E02
$$ 1.000000E02, 3.300601E02
$$ 1.000000E02, 3.292987E02
$$ 1.000000E02, 3.285427E02
$$ 1.000000E02, 3.277921E02
$$ 1.000000E02, 3.270469E02
$$ 1.000000E02, 3.263071E02
$$ 1.000000E02, 3.255727E02
$$ 1.000000E02, 3.248437E02
$$ 1.000000E02, 3.241201E02
$$ 1.000000E02, 3.234019E02
$$ 1.000000E02, 3.226891E02
$$ 1.000000E02, 3.219817E02
$$ 1.000000E02, 3.212797E02
$$ 1.000000E02, 3.205831E02
$$ 1.000000E02, 3.198919E02
$$ 1.000000E02, 3.192061E02
$$ 1.000000E02, 3.185257E02
$$ 1.000000E02, 3.178507E02
$$ 1.000000E02, 3.171811E02
$$ 1.000000E02, 3.165169E02
$$ 1.000000E02, 3.158581E02
$$ 1.000000E02, 3.152047E02
$$ 1.000000E02, 3.145567E02
$$ 1.000000E02, 3.139141E02
$$ 1.000000E02, 3.132769E02
$$ 1.000000E02, 3.126451E02
$$ 1.000000E02, 3.120187E02
$$ 1.000000E02, 3.113977E02
$$ 1.000000E02, 3.107821E02
$$ 1.000000E02, 3.101719E02
$$ 1.000000E02, 3.095671E02
$$ 1.000000E02, 3.089677E02
$$ 1.000000E02, 3.083737E02
$$ 1.000000E02, 3.077851E02
$$ 1.000000E02, 3.072019E02
$$ 1.000000E02, 3.066241E02
$$ 1.000000E02, 3.060517E02
$$ 1.000000E02, 3.054847E02
$$ 1.000000E02, 3.049231E02
$$ 1.000000E02, 3.043669E02
$$ 1.000000E02, 3.038161E02
$$ 1.000000E02, 3.032707E02
$$ 1.000000E02, 3.027307E02
$$ 1.000000E02, 3.021961E02
$$ 1.000000E02, 3.016669E02
$$ 1.000000E02, 3.011431E02
$$ 1.000000E02, 3.006247E02
$$ 1.000000E02, 3.001117E02
$$ 1.000000E02, 2.996041E02
$$ 1.000000E02, 2.991019E02
$$ 1.000000E02, 2.986051E02
$$ 1.000000E02, 2.981137E02
$$ 1.000000E02, 2.976277E02
$$ 1.000000E02, 2.971471E02
$$ 1.000000E02, 2.966719E02
$$ 1.000000E02, 2.962021E02
$$ 1.000000E02, 2.957377E02
$$ 1.000000E02, 2.952787E02
$$ 1.000000E02, 2.948251E02
$$ 1.000000E02, 2.943769E02
$$ 1.000000E02, 2.939341E02
$$ 1.000000E02, 2.934967E02
$$ 1.000000E02, 2.930647E02
$$ 1.000000E02, 2.926381E02
$$ 1.000000E02, 2.922169E02
$$ 1.000000E02, 2.918011E02
$$ 1.000000E02, 2.913907E02
$$ 1.000000E02, 2.909857E02
$$ 1.000000E02, 2.905861E02
$$ 1.000000E02, 2.901919E02
$$ 1.000000E02, 2.898031E02
$$ 1.000000E02, 2.894197E02
$$ 1.000000E02, 2.890417E02
$$ 1.000000E02, 2.886691E02
$$ 1.000000E02, 2.883019E02
$$ 1.000000E02, 2.879401E02
$$ 1.000000E02, 2.875837E02
$$ 1.000000E02, 2.872327E02
$$ 1.000000E02, 2.868871E02
$$ 1.000000E02, 2.865469E02
$$ 1.000000E02, 2.862121E02
$$ 1.000000E02, 2.858827E02
$$ 1.000000E02, 2.855587E02
$$ 1.000000E02, 2.852401E02
$$ 1.000000E02, 2.849269E02
$$ 1.000000E02, 2.846191E02
$$ 1.000000E02, 2.843167E02
$$ 1.000000E02, 2.840197E02
$$ 1.000000E02, 2.837281E02
$$ 1.000000E02, 2.834419E02
$$ 1.000000E02, 2.831611E02
$$ 1.000000E02, 2.828857E02
$$ 1.000000E02, 2.826157E02
$$ 1.000000E02, 2.823511E02
$$ 1.000000E02, 2.820919E02
$$ 1.000000E02, 2.818381E02
$$ 1.000000E02, 2.815897E02
$$ 1.000000E02, 2.813467E02
$$ 1.000000E02, 2.811091E02
$$ 1.000000E02, 2.808769E02
$$ 1.000000E02, 2.806501E02
$$ 1.000000E02, 2.804287E02
$$ 1.000000E02, 2.802127E02
$$ 1.000000E02, 2.800021E02
$$ 1.000000E02, 2.797969E02
$$ 1.000000E02, 2.795971E02
$$ 1.000000E02, 2.794027E02
$$ 1.000000E02, 2.792137E02
$$ 1.000000E02, 2.790301E02
$$ 1.000000E02, 2.788519E02
$$ 1.000000E02, 2.786791E02
$$ 1.000000E02, 2.785117E02
$$ 1.000000E02, 2.783497E02
$$ 1.000000E02, 2.781931E02
$$ 1.000000E02, 2.780419E02
$$ 1.000000E02, 2.778961E02
$$ 1.000000E02, 2.777557E02
$$ 1.000000E02, 2.776207E02
$$ 1.000000E02, 2.774911E02
$$ 1.000000E02, 2.773669E02
$$ 1.000000E02, 2.772481E02
$$ 1.000000E02, 2.771347E02
$$ 1.000000E02, 2.770267E02
$$ 1.000000E02, 2.769241E02
$$ 1.000000E02, 2.768269E02
$$ 1.000000E02, 2.767351E02
$$ 1.000000E02, 2.766487E02
$$ 1.000000E02, 2.765677E02
$$ 1.000000E02, 2.764921E02
$$ 1.000000E02, 2.764219E02
$$ 1.000000E02, 2.763571E02
$$ 1.000000E02, 2.762977E02
$$ 1.000000E02, 2.762437E02
$$ 1.000000E02, 2.761951E02
$$ 1.000000E02, 2.761519E02
$$ 1.000000E02, 2.761141E02
$$ 1.000000E02, 2.760817E02
$$ 1.000000E02, 2.760547E02
$$ 1.000000E02, 2.760331E02
$$ 1.000000E02, 2.760169E02
$$ 1.000000E02, 2.760061E02
$$ 1.000000E02, 2.760007E02
$$ 1.000000E02, 2.760007E02
$$ 1.000000E02, 2.760061E02
$$ 1.000000E02, 2.760169E02
$$ 1.000000E02, 2.760331E02
$$ 1.000000E02, 2.760547E02
$$ 1.000000E02, 2.760817E02
$$ 1.000000E02, 2.761141E02
$$ 1.000000E02, 2.761519E02
$$ 1.000000E02, 2.761951E02
$$ 1.000000E02, 2.762437E02
$$ 1.000000E02, 2.762977E02
$$ 1.000000E02, 2.763571E02
$$ 1.000000E02, 2.764219E02
$$ 1.000000E02, 2.764921E02
$$ 1.000000E02, 2.765677E02
$$ 1.000000E02, 2.766487E02
$$ 1.000000E02, 2.767351E02
$$ 1.000000E02, 2.768269E02
$$ 1.000000E02, 2.769241E02
$$ 1.000000E02, 2.770267E02
$$ 1.000000E02, 2.771347E02
$$ 1.000000E02, 2.772481E02
$$ 1.000000E02, 2.773669E02
$$ 1.000000E02, 2.774911E02
$$ 1.000000E02, 2.776207E02
$$ 1.000000E02, 2.777557E02
$$ 1.000000E02, 2.778961E02
$$ 1.000000E02, 2.780419E02
$$ 1.000000E02, 2.781931E02
$$ 1.000000E02, 2.783497E02
$$ 1.000000E02, 2.785117E02
$$ 1.000000E02, 2.786791E02
$$ 1.000000E02, 2.788519E02
$$ 1.000000E02, 2.790301E02
$$ 1.000000E02, 2.792137E02
$$ 1.000000E02, 2.794027E02
$$ 1.000000E02, 2.795971E02
$$ 1.000000E02, 2.797969E02
$$ 1.000000E02, 2.800021E02
$$ 1.000000E02, 2.802127E02
$$ 1.000000E02, 2.804287E02
$$ 1.000000E02, 2.806501E02
$$ 1.000000E02, 2.808769E02
$$ 1.000000E02, 2.811091E02
$$ 1.000000E02, 2.813467E02
$$ 1.000000E02, 2.815897E02
$$ 1.000000E02, 2.818381E02
$$ 1.000000E02, 2.820919E02
$$ 1.000000E02, 2.823511E02
$$ 1.000000E02, 2.826157E02
$$ 1.000000E02, 2.828857E02
$$ 1.000000E02, 2.831611E02
$$ 1.000000E02, 2.834419E02
$$ 1.000000E02, 2.837281E02
$$ 1.000000E02, 2.840197E02
$$ 1.000000E02, 2.843167E02
$$ 1.000000E02, 2.846191E02
$$ 1.000000E02, 2.849269E02
$$ 1.000000E02, 2.852401E02
$$ 1.000000E02, 2.855587E02
$$ 1.000000E02, 2.858827E02
$$ 1.000000E02, 2.862121E02
$$ 1.000000E02, 2.865469E02
$$ 1.000000E02, 2.868871E02
$$ 1.000000E02, 2.872327E02
$$ 1.000000E02, 2.875837E02
$$ 1.000000E02, 2.879401E02
$$ 1.000000E02, 2.883019E02
$$ 1.000000E02, 2.886691E02
$$ 1.000000E02, 2.890417E02
$$ 1.000000E02, 2.894197E02
$$ 1.000000E02, 2.898031E02
$$ 1.000000E02, 2.901919E02
$$ 1.000000E02, 2.905861E02
$$ 1.000000E02, 2.909857E02
$$ 1.000000E02, 2.913907E02
$$ 1.000000E02, 2.918011E02
$$ 1.000000E02, 2.922169E02
$$ 1.000000E02, 2.926381E02
$$ 1.000000E02, 2.930647E02
$$ 1.000000E02, 2.934967E02
$$ 1.000000E02, 2.939341E02
$$ 1.000000E02, 2.943769E02
$$ 1.000000E02, 2.948251E02
$$ 1.000000E02, 2.952787E02
$$ 1.000000E02, 2.957377E02
$$ 1.000000E02, 2.962021E02
$$ 1.000000E02, 2.966719E02
$$ 1.000000E02, 2.971471E02
$$ 1.000000E02, 2.976277E02
$$ 1.000000E02, 2.981137E02
$$ 1.000000E02, 2.986051E02
$$ 1.000000E02, 2.991019E02
$$ 1.000000E02, 2.996041E02
$$ 1.000000E02, 3.001117E02
$$ 1.000000E02, 3.006247E02
$$ 1.000000E02, 3.011431E02
$$ 1.000000E02, 3.016669E02
$$ 1.000000E02, 3.021961E02
$$ 1.000000E02, 3.027307E02
$$ 1.000000E02, 3.032707E02
$$ 1.000000E02, 3.038161E02
$$ 1.000000E02, 3.043669E02
$$ 1.000000E02, 3.049231E02
$$ 1.000000E02, 3.054847E02
$$ 1.000000E02, 3.060517E02
$$ 1.000000E02, 3.066241E02
$$ 1.000000E02, 3.072019E02
$$ 1.000000E02, 3.077851E02
$$ 1.000000E02, 3.083737E02
$$ 1.000000E02, 3.089677E02
$$ 1.000000E02, 3.095671E02
$$ 1.000000E02, 3.101719E02
$$ 1.000000E02, 3.107821E02
$$ 1.000000E02, 3.113977E02
$$ 1.000000E02, 3.120187E02
$$ 1.000000E02, 3.126451E02
$$ 1.000000E02, 3.132769E02
$$ 1.000000E02, 3.139141E02
$$ 1.000000E02, 3.145567E02
$$ 1.000000E02, 3.152047E02
$$ 1.000000E02, 3.158581E02
$$ 1.000000E02, 3.165169E02
$$ 1.000000E02, 3.171811E02
$$ 1.000000E02, 3.178507E02
$$ 1.000000E02, 3.185257E02
$$ 1.000000E02, 3.192061E02
$$ 1.000000E02, 3.198919E02
$$ 1.000000E02, 3.205831E02
$$ 1.000000E02, 3.212797E02
$$ 1.000000E02, 3.219817E02
$$ 1.000000E02, 3.226891E02
$$ 1.000000E02, 3.234019E02
$$ 1.000000E02, 3.241201E02
$$ 1.000000E02, 3.248437E02
$$ 1.000000E02, 3.255727E02
$$ 1.000000E02, 3.263071E02
$$ 1.000000E02, 3.270469E02
$$ 1.000000E02, 3.277921E02
$$ 1.000000E02, 3.285427E02
$$ 1.000000E02, 3.292987E02
$$ 1.000000E02, 3.300601E02
$$ 1.000000E02, 3.308269E02
$$ 1.000000E02, 3.315991E02
$$ 1.000000E02, 3.323767E02
$$ 1.000000E02, 3.331597E02
$$ 1.000000E02, 3.339481E02
$$ 1.000000E02, 3.347419E02
$$ 1.000000E02, 3.355411E02
$$ 1.000000E02, 3.363457E02
$$ 1.000000E02, 3.371557E02
$$ 1.000000E02, 3.379711E02
$$ 1.000000E02, 3.387919E02
$$ 1.000000E02, 3.396181E02
$$ 1.000000E02, 3.404497E02
$$ 1.000000E02, 3.412867E02
$$ 1.000000E02, 3.421291E02
$$ 1.000000E02, 3.429769E02
$$ 1.000000E02, 3.438301E02
$$ 1.000000E02, 3.446887E02
$$ 1.000000E02, 3.455527E02
$$ 1.000000E02, 3.464221E02
$$ 1.000000E02, 3.472969E02
$$ 1.000000E02, 3.481771E02
$$ 1.000000E02, 3.490627E02
$$ 1.000000E02, 3.499537E02
$$ 1.000000E02, 3.508501E02
$$ 1.000000E02, 3.517519E02
$$ 1.000000E02, 3.526591E02
$$ 1.000000E02, 3.535717E02
$$ 1.000000E02, 3.544897E02
$$ 1.000000E02, 3.554131E02
$$ 1.000000E02, 3.563419E02
$$ 1.000000E02, 3.572761E02
$$ 1.000000E02, 3.582157E02
$$ 1.000000E02, 3.591607E02
$$ 1.000000E02, 1.110750E-01
$$ 1.000000E02, 1.066875E00
$$ 1.000000E02, 2.028075E00
$$ 1.000000E02, 2.994675E00
$$ 1.000000E02, 3.966675E00
$$ 1.000000E02, 4.944075E00
$$ 1.000000E02, 5.926875E00
$$ 1.000000E02, 6.915075E00
$$ 1.000000E02, 7.908675E00
$$ 1.000000E02, 8.907675E00
$$ 1.000000E02, 9.912075E00
$$ 1.000000E02, 1.092188E01
$$ 1.000000E02, 1.193707E01
$$ 1.000000E02, 1.295768E01
$$ 1.000000E02, 1.398367E01
$$ 1.000000E02, 1.501507E01
$$ 1.000000E02, 1.605187E01
$$ 1.000000E02, 1.709407E01
$$ 1.000000E02, 1.814167E01
$$ 1.000000E02, 1.919467E01
$$ 1.000000E02, 2.025307E01
$$ 1.000000E02, 2.131687E01
$$ 1.000000E02, 2.238608E01
$$ 1.000000E02, 2.346067E01
$$ 1.000000E02, 2.454067E01
$$ 1.000000E02, 2.562607E01
$$ 1.000000E02, 2.671688E01
$$ 1.000000E02, 2.781307E01
$$ 1.000000E02, 2.891467E01
$$ 1.000000E02, 3.002167E01
$$ 1.000000E02, 3.113407E01
$$ 1.000000E02, 3.225188E01
$$ 1.000000E02, 3.337507E01
$$ 1.000000E02, 3.450367E01
$$ 1.000000E02, 3.563767E01
$$ 1.000000E02, 3.677707E01
$$ 1.000000E02, 3.792187E01
$$ 1.000000E02, 3.907207E01
$$ 1.000000E02, 4.022767E01
$$ 1.000000E02, 4.138867E01
$$ 1.000000E02, 4.255507E01
$$ 1.000000E02, 4.372688E01
$$ 1.000000E02, 4.490408E01
$$ 1.000000E02, 4.608667E01
$$ 1.000000E02, 4.727468E01
$$ 1.000000E02, 4.846808E01
$$ 1.000000E02, 4.966687E01
$$ 1.000000E02, 5.087107E01
$$ 1.000000E02, 5.208067E01
$$ 1.000000E02, 5.329567E01
$$ 1.000000E02, 5.451608E01
$$ 1.000000E02, 5.574187E01
$$ 1.000000E02, 5.697307E01
$$ 1.000000E02, 5.820968E01
$$ 1.000000E02, 5.945167E01
$$ 1.000000E02, 6.069907E01
$$ 1.000000E02, 6.195188E01
$$ 1.000000E02, 6.321007E01
$$ 1.000000E02, 6.447367E01
$$ 1.000000E02, 6.574267E01
$$ 1.000000E02, 6.701708E01
$$ 1.000000E02, 6.829688E01
$$ 1.000000E02, 6.958208E01
$$ 1.000000E02, 7.087268E01
$$ 1.000000E02, 7.216868E01
$$ 1.000000E02, 7.347007E01
$$ 1.000000E02, 7.477687E01
$$ 1.000000E02, 7.608907E01
$$ 1.000000E02, 7.740667E01
$$ 1.000000E02, 7.872967E01
$$ 1.000000E02, 8.005807E01
$$ 1.000000E02, 8.139188E01
$$ 1.000000E02, 8.273107E01
$$ 1.000000E02, 8.407567E01
$$ 1.000000E02, 8.542567E01
$$ 1.000000E02, 8.678107E01
$$ 1.000000E02, 8.814188E01
$$ 1.000000E02, 8.950807E01
$$ 1.000000E02, 9.087967E01
$$ 1.000000E02, 9.225667E01
$$ 1.000000E02, 9.363907E01
$$ 1.000000E02, 9.502687E01
$$ 1.000000E02, 9.642008E01
$$ 1.000000E02, 9.781867E01
$$ 1.000000E02, 9.922267E01
$$ 1.000000E02, 1.006321E02
$$ 1.000000E02, 1.020469E02
$$ 1.000000E02, 1.034671E02
$$ 1.000000E02, 1.048927E02
$$ 1.000000E02, 1.063237E02
$$ 1.000000E02, 1.077601E02
$$ 1.000000E02, 1.092019E02
$$ 1.000000E02, 1.106491E02
$$ 1.000000E02, 1.121017E02
$$ 1.000000E02, 1.135597E02
$$ 1.000000E02, 1.150231E02
$$ 1.000000E02, 1.164919E02
$$ 1.000000E02, 1.179661E02
$$ 1.000000E02, 1.194457E02
$$ 1.000000E02, 1.209307E02
$$ 1.000000E02, 1.224211E02
$$ 1.000000E02, 1.239169E02
$$ 1.000000E02, 1.254181E02
$$ 1.000000E02, 1.269247E02
$$ 1.000000E02, 1.284367E02
$$ 1.000000E02, 1.299541E02
$$ 1.000000E02, 1.314769E02
$$ 1.000000E02, 1.330051E02
$$ 1.000000E02, 1.345387E02
$$ 1.000000E02, 1.360777E02
$$ 1.000000E02, 1.376221E02
$$ 1.000000E02, 1.391719E02
$$ 1.000000E02, 1.407271E02
$$ 1.000000E02, 1.422877E02
$$ 1.000000E02, 1.438537E02
$$ 1.000000E02, 1.454251E02
$$ 1.000000E02, 1.470019E02
$$ 1.000000E02, 1.485841E02
$$ 1.000000E02, 1.501717E02
$$ 1.000000E02, 1.517647E02
$$ 1.000000E02, 1.533631E02
$$ 1.000000E02, 1.549669E02
$$ 1.000000E02, 1.565761E02
$$ 1.000000E02, 1.581907E02
$$ 1.000000E02, 1.598107E02
$$ 1.000000E02, 1.614361E02
$$ 1.000000E02, 1.630669E02
$$ 1.000000E02, 1.647031E02
$$ 1.000000E02, 1.663447E02
$$ 1.000000E02, 1.679917E02
$$ 1.000000E02, 1.696441E02
$$ 1.000000E02, 1.713019E02
$$ 1.000000E02, 1.729651E02
$$ 1.000000E02, 1.746337E02
$$ 1.000000E02, 1.763077E02
$$ 1.000000E02, 1.779871E02
$$ 1.000000E02, 1.796719E02
$$ 1.000000E02, 1.813621E02
$$ 1.000000E02, 1.830577E02
$$ 1.000000E02, 1.847587E02
$$ 1.000000E02, 1.864651E02
$$ 1.000000E02, 1.881769E02
$$ 1.000000E02, 1.898941E02
$$ 1.000000E02, 1.916167E02
$$ 1.000000E02, 1.933447E02
$$ 1.000000E02, 1.950781E02
$$ 1.000000E02, 1.968169E02
$$ 1.000000E02, 1.985611E02
$$ 1.000000E02, 2.003107E02
$$ 1.000000E02, 2.020657E02
$$ 1.000000E02, 2.038261E02
$$ 1.000000E02, 2.055919E02
$$ 1.000000E02, 2.073631E02
$$ 1.000000E02, 2.091397E02
$$ 1.000000E02, 2.109217E02
$$ 1.000000E02, 2.127091E02
$$ 1.000000E02, 2.145019E02
$$ 1.000000E02, 2.163001E02
$$ 1.000000E02, 2.181037E02
$$ 1.000000E02, 2.199127E02
$$ 1.000000E02, 2.217271E02
$$ 1.000000E02, 2.235469E02
$$ 1.000000E02, 2.253721E02
$$ 1.000000E02, 2.272027E02
$$ 1.000000E02, 2.290387E02
$$ 1.000000E02, 2.308801E02
$$ 1.000000E02, 2.327269E02
$$ 1.000000E02, 2.345791E02
$$ 1.000000E02, 2.364367E02
$$ 1.000000E02, 2.382997E02
$$ 1.000000E02, 2.401681E02
$$ 1.000000E02, 2.420419E02
$$ 1.000000E02, 2.439211E02
$$ 1.000000E02, 2.458057E02
$$ 1.000000E02, 2.476957E02
$$ 1.000000E02, 2.495911E02
$$ 1.000000E02, 2.514919E02
$$ 1.000000E02, 2.533981E02
$$ 1.000000E02, 2.553097E02
$$ 1.000000E02, 2.572267E02
$$ 1.000000E02, 2.591491E02
$$ 1.000000E02, 2.610769E02
$$ 1.000000E02, 2.630101E02
$$ 1.000000E02, 2.649487E02
$$ 1.000000E02, 2.668927E02
$$ 1.000000E02, 2.688421E02
$$ 1.000000E02, 2.707969E02
$$ 1.000000E02, 2.727571E02
$$ 1.000000E02, 2.747227E02
$$ 1.000000E02, 2.766937E02
[...]
3670G01485J9855J3700P058L92n683j0530j3647j4755j3834j1092o905j734L925
3657F68235R586J4751J8889K1433K1835J9664J4728P153k575j3643k5038l5702
3645G19316m4720n1455n5614n7250n6689n4438n1060m7062m2811l8503l4196k9888
3633A55630k5592k1371j7309j3478r902o586l560r25J144K450K858K369J162m35
3619F6455k016l211l753l538k615j152O23K472M177N580O581P137P233O852N960
3604I6785M536K629M09j805l601m566m393k955l25L234P338J1529J5362J8451
3590A42628K0507K1346K0893J9176J6340J2645Q437M085o8l762o822r153j0724
3577B35528j1554j1711j1306j0482r408q261p220o454o093o201o760p658q700
3564A23720r643j0216j0173r324p584n010j798J737N225Q330J0814J2575J3635
3551A22288J4085J4063J3731J3293J2999J3109J3835J5269J7326J9738K2105K3976
3539C15817K4975K4891K3720K1634J8893J5769J2471R140N851K620n76l767o931
3526D64507r960j2626j4622j5635j5423j3892j1104p236k519K828Q637J4786K1176
3513D08917K7675L4104M0217M5730N0330N3697N5515N5491N3395M9127M2759L4555
3501I51512K4959J4521L825o584j6248k4798l1961l7531m1403m3587m4240m3669
3489G04796m2289m0549l8855l7508l6663l6318l6339l6493l6517l6195l5414l4207
3477B57449l2743l1265l0009k9123k8623k8390k8212B1243e815k5714k3706k0955
3465g6190j7359j2819p316r91N793J2488J8458K3100K5966b022B3787K3193J9549
3452F6529J5546J1847Q987P289O830P471Q935J0893J3034J5089J6855J8188J9032
3439B26525J9418J9461J9341J9267J9445K0041K1140K2707K4555K6343K7636K7992
3427D93871K7056K4648K0773J5598R403K523m690j1897j8801k5155l0796l5634
3415D66899l9649m2841m5208m6718m7340m7065m5938m4051m1527B8057g064l1529
3403c8593k7876k4308k0913j7671j4429j0908o798j860L949J0422J7104K3383
3391a08498K8621L2310a3395B0798L2566K9596K5629K1008J6073J1176O653K809
3379A66308j41k112l175l556l544l405l250l007k425j198Q91L849P419J1139J4478
3364A78271J6965J8298J8368J7228J5045J2056Q537M785J103k217m919o795p729
3351B68996p704o838n365l608j922o36qj76j139k735m680o643q351r666j0626
3336A98899j1399j2202j3228j4580j6282j8280k0473k2694k4712A8812h171k6746
3324c4917k5471k3284k0466j7361j4288j1467r009o947n294m056l234k771k521
3311a81086k237j610l29J825M925Q855J3343J8018K2501K6466K9672b7689E560
3297C9014L2516L0381K7021K2432J6674R871K253n824j3883k1368k7731l2517
3285G8839l5439F993b8538l3078k9393k4833j9715j4290q762l282K022P053J1739
3272a41077J6052K0007K3645K7002b4302H485L5092L6944L8367L9419M0169M0664
3260B39140M0925M0973M0856M0650M0435M0252M0074L9806L9311L8461L7177L5454
3248G13514L3372L1097K8843K6822K5137K3697K2164K0004J6610J1508M547l993
3236I53322j3407k2709l0872l7069m0859m2254m1656l9709l7111l4459l2148l0358
3224E50711k9079k8180k7469k6756k5883k4757k3369k1821k0322j9134j8492j8499
3212B66950j9075j9974k0820k1206k0771j9283j6707j3225r177m982j022K428
3200A03136N230P372Q902R874J0302J0163R448Q240O749N318M354M232N217P399
3186B05936J0702J4931J9839K5165L0637L5927M0629M4264M6360M6571M4801M1281
3174F07043L6539L1293K6272K2035J8880J6817J5649J5082J4821J4609J4205J3351
3162H46596J1766R192N473O14n179j1515j7877k3714k8543l2033l4015l4444l3337
3149F52984l0721k6659k1301j4946q046j167N115J0326J4171J6573J7645J7626
3137F31600J6800J5430J3716J1783R692P464N119K703L16j908l814n277o229o702
3123F90693o833o848p014p564q623j0176j2068j4068j5944j7530j8748j9587k0047
3110E25643k0090j9650j8667j7159j5277j3299j1579j0447j0100j0537j1556j2808
3098C54474j3905j4509j4413j3545j1952r753p112m218j287J453L798N625O909
3085B81565P742Q281Q701R150R718J0434J1274J2169J3030J3754J4228J4298J3755
3072D28099J2325R724N739L28o355j3970k2077l0216l7964m4963n0945n5761n9400
3059A34564o1998H790e6170o5692o5947o5561o4289o1921n8376n3737m8222m2097
3047e82012l5601k8896k2082j5256q545k134L759Q923J3192J6496J8908K0666
3035f12582K2151K3789K5903K8586L1637L4619L7022L8463L8824L8282L7208L6015
3023b20083L4999L4270L3737L3178L2310b0731G878K5443K1331J6348J0645M439
3011H6084j976q217j3790j8142k0745B007a7358j5326r440k274N461J2999f309
2997A8501K8252K9922L0002K8777K6544K3524J9851J5593J0832N752O75l976p764
2984B26485j0348j1513j1187r406o302k120K779P957J2957J7419K1132K4061K6299
2971B88213K8006K9335L0388L1188L1685L1780L1384L0448K8994K7071K4715K1889
2959F35096J8486J4375R493L928k029p913j3174j7306j9952k0979k0481j8742
2947E60802j6150j3113r979p009m384k237o99P6r8j394l912p610j2267j7494k2799
2932D41733k7664l1637l4379l5705l5581l4115l1535k8147k4290k0297j6442j2925
2920A09016r853p268n152l453k079r20J35J160K160L083L872M542N237O220P786
2905A14486J0146J3319J7086K1028K4606K7273K8581K8292K6447K3396J9729J6130
2893C70519J3209J1326J0539J0611J1149J1757J2188J2387J2468J2619J2983J3601
2881E15356J4388J5177J5779J6034J5850J5216J4192J2889J1411R802Q025N969
2869F70088L499N38k854o441r812j2474j3985j4089j2783j0307p070l553k31K469
2855E82995M181M621L592J025k967q064j3754j9429k4540k8757l2036l4588l6737
2842C95542l8745m0681m2389m3545m3787m2865m0763l7760C0613g16k9156k8199
2830e8071k8424k9445l0652l1353l0907k8811k4756j8650j0636j085R443K0258
2818b63089L0644L9958M7707N3608c3605B6038O0017N8943N6751N3800N0435M6928
2806C52912M3415L9886L6215L2254K7926K3309J8639J4233J0361P131M436J999
2794F12716n24l401o751j0521j4526j8524k2291k5652k8483l0681l2127l2685
2782C86550l2241l0763k8369k5343k2067j8918j6158j3873j1984j0330q746p138
2770A60620n473l773k080m52J017K201K956L187K914K290J574J022P93Q65J060
2755A68721J104P23k92k074m683q123j2325j7104k2127k6896l0807A2852b0957
2741e3189k8606k3260j6699r501k207M738J1036J6519K1100K4720K7317H11K9306
2728C0117K8772K7362K5215K2463J9232J5677J1998Q429N179K384O2j894l676
2715A91320n513p610j0088j2967j6129j9355k2348k4803k6466A8849h115k5887
2703c4002k4133k1906j9402j6818j4359j2232j0608r522q825q188p191n442k712
2690a95340J035N650J0886J6481K2213K7924L3477L8741D622M7758N1208N3816
2678A57404N5541N6360N6241N5152N3076N0080M6339M2134L7799L3623K9746K6120
2666F99615K2516J8620J4152Q951L030l458j0284j7231k4148l0959l7593m3890
2654E99321m9544n4092n7009n7826n6265n2315m6219l8413k9401j9679r673K41
2642A29126R710J8341K5662L1129L4203L4493L1902K6721J9609J1470L262m179
2630C71449j0284j4795j7756j9431k0214k0516k0680k0916k1271k1633k1790k1516
2618A40647k0641j9104j6961j4352j1465q496n609k914m37J862M057O177Q126
2605F0890R634J0282R594P187K882l226j0784j9226k7843C562c8796m6690m8267
2592a33753m6835m2502l5727k7244j7945q738m09O461J1538J4724J6116J5973
2580b48341J4680J2720J0628Q908P950P949Q893J0599J2806J5274J7839K0409
2568i9686K2913K5248b4273D453K9504K9503K8760K7421K5697K3822K2003K0381
2556B11544J9008J7812J6623J5224J3443J1239Q753O275M149K667J978K065K765
2543C33545L830M973N909O358O054M769K352j182n594j0404j4968j8609k0764
2530B96269k1096j9532j6253j1667o371j112L305O142O876N286J482m137j0956
2517B28236j8222k5144l1017l5326l7830l8565D318c1719l3794l1659l0130k9530
2505a56832k9939l1159l2767l4214l4998l4809l3610l1637k9313k7139k5571k4927
2493e26915k5326k6645k8525l0417l1678l1694l0012k6449k1132j4473p077M07
2481g99936P424J3597J8738K2764K5606K7141K7223K5756K2786J8557J3470Q001
2469e68873K601k384o714j0246j2857j4402j4685j3482j0631o133k36O561J3585
2456f37896K0165K5788L0234L3587L6151L8312M0375M2468M4492M6176M7162M7113
2444a85873M5802M3142L9201b3555D772K1959J5346Q725K299l774r363j4360F967
2430a5071k4392k5555k5484k4271k2138j9406j6436j3563j1058r083p672o742
2418b20871o092n437m447k805k81L199P509J2341J7269K1825K5597K8267K9635
2405i4291K9627K8288a0571A1938J8842J5257J2131R687P988O973O484O296O119
2392A01715N636M547K633k06l936q405j3356j8471k3382A9056a2076l3335l4117
2379g9528l3383l1181k7719k3352j8537j3756r418n802l041j152p1L28K30j08
2365b46490l80k65N30K227M942Q658J3185J8154K3040K7223L0121L1322L0663
2352e7070K8259d384A5210J4202Q675L412j177m708o853p445o543m460j715J106
2338I704L487N101N850N814N175M127K836J435N7j133j935k113j430L36L346P675
2322D8332J3276J9935K7268L4726M1675M7512N1791N4316N5148N4537N2797N0194
2310E51507M6884M2927L8347L3207K7651K1888J6145J0611N403N86l797p686j0991
2297G72682j3615j5493j6624j7116j7166j7049j7049j7405j8263j9644k1446k3477
2285E58335k5495k7259k8573k9302k9406k8931k8019k6868k5684k4621k3754k3057
2273B37366k2424k1703k0724j9360j7574j5457j3240j1250r863r416j0148j2147
2261E4060j5312j9353d424k8158l1795l4220l5066l4147l1471k7207k1645j5143
2249b63276q114j006N704J1549J6145J9268K0927K1364K1001K0335J9817J9758
2237i6528K0262K1220K2331i532A3812K2478K0394J7099J2746P599J976l778r316
2224H3010j4301j8451k1553E224a8949k3611k1803j8796j4725r853m586N61N047
2211a06715Q418J0413J1031J0539R420Q250P578P829R234J1832C313J9906K4683
2198D7902K9327L3320L6175L7503L7051L4698L0451K4405J6747P754k184j2576
2186C20573k2859l2486m0997m8069n3503n7180F469e2446n6869n2936m7334m0441
2174b50026l2749k4768j6939r557k769L381Q885J3695J7702K0747K2684K3426
2162b26288K2983K1461J9028J5878J2209Q236M207M31k756n045o250o367n601
2149a47874m308k900j731j012p67q39r60q36k59Q32K350M118N944P685R248J0571
2133a20738J1605J2305J2636J2598J2229J1607J0833J0032R310Q743d79G657Q001
2120A5658P846P544O975O053M737L042J024j210l521n752p765r483j0920B045
2105a1399j4884j6603j8570k0585k2296k3274k3124k1582j8583j4242q799k546
2093b16487M216J1178J8023K4430L0089L4715L8037a5994B3819L7943L4223K8856
2081A24841K2214J4772P022o02p759j4207j9758k4277k7683k9960A3430a8002
2068d8858k9522k7455k4651k1136j7024j2544q026l818j99K707M976O869Q784
2055a69897J1159J4377J8694K4183L0704c2874A2358N1986N7420O0864O1843O0169
2043C04640N5985M9739M2123L3966K6092J9197J3742R895P559O448O214O535P152
2030E89287P841Q395Q629Q450P922P286O885P031P860R259J0866J2170J2641J1842
2016G16364R531N703O02n313j1440j7143k1873k5278k7273k8025k7856k7111k6027
2003E14861k4652k2854k0402j7092j2876p928k626K547P130J0786J3355J4882
1991D55131J5569J5729J5678J5650J5750J5935J6046J5827J4946J3042R782M953
1979F24038j468r277j8028k7084l5675m3013m8416n1429n1892m9965m6056m0733
1967B01002l4598k8196k1962j6210j1128o801l192j58K540N190Q063J1356J5130
1954A21036J9295K3593K7635L0943L3041L3542L2217K9058K4285J8331J1763N165
1942D09904r58o284j0686j4220j7040j9331k1214k2699k3683k3989k3458k2043
1930B04299j9873j7243j4542j2154j0367r326r021r309r967j0748j1448j1951
1918E8350j2213j2220j1909A0858A069f659n013j846J443M494e64H294J0016J0595
1904B8905J0733J0510R922Q890P329N218K647j79k974n436p314q475q931q816
1890D2029q323p634o848n990n030l940A520el93A74J374K097K882L854N062O467
1874B1910P967R458J0866J2161J3328J4320J5033J5303J4942J3784J1759Q912
1862A69743N422J563k355o008r091j1301j2359j2024j0143o686j780M280J1054
1849A20315J7991K4500L0037L4183L6702L7568L6931L5059L2248K8745K4705K0222
1837D79206J5412J0478N732J551j740l942n028n106m369l023j268P08K705M522
1823D95838N960O864P139O767N782M240K191l37l294o590j0080j3578j6908j9940
1809D64054k2602k4873k6744k8199k9201k9705k9679k9137k8150k6823k5248k3469
1797A40224k1461j9162j6529j3594j0462p301m311j717K22J202R22q56m220r026
1783C3931j4868b041k6943l1571l4316l4761l2823k8739k2988j6181q940j802
1771b41105M838J0755J5872K0207K3787K6589K8481K9264K8753b5649a727A8449
1758C4594J2230Q652N461K604N9k091l634m289l818k119P07M379Q492J2589J6236
1743I0052J9068K0824K1378K0754J9120J6760J4029J1290Q846O888N443M398L531
1730B62381K607J479J58j150k099k298j433O42L867P991J2637J7365K1732K5309
1716C49188K7703K8577K7668K4838K0128J3792O308j679r449j6341k1869k5797
1704D23067k8145k9120k9003k8039k6357k3983k0888j7084j2681p902l047J572
1692A98390N691R118J1746J3535J4513J4768J4449J3751J2867J1947J1036J0045
1680C41856Q770O939M320Q00l547q469j3578j8429k2594k5725k7603k8173k7543
1667A87024k5974k3814k1416j9068j6927j5000j3173j1277r146o702l994j205
1655A9328J386L480M843N364N078M130K726J081o12k178l459m311m624m340l447
1640B4445j947J65K901O275J0257J4757J9587K4456K8985L2770L5456L6832L6882
1627B71821L5767L3754L1121K8076K4729K1136J7349J3443R519N653J850j964
1615D92254n901j0048j4388j8782k2990k6732k9748l1828l2818l2612l1130k8339
1603B06938k4275j9085j3060o642l79N125R303J1719J2126J0514P116K351l238
1590A98513r079j4643j9518k3440k6314k8214k9361A7905a2598l0898l1193l1230
1578a05919l0776k9634k7698k4981k1602j7740j3581r290m993p94L216O955J0387
1565b66450J3540J6526J9504K2609K5889K9280L2628L5745c2239H558M2686M4186
1553I5430M5276M5827M5638M4515M2396L9417L5915L2351K9185K6758K5210K4442
1541E32360K4156K3930K3327K1989J9710J6444J2290P443K168l211q321j2754
1529F59531j6093j7982j8196j6708j3723r663n086n72L418O631R066J0912J2463
1516F03998J3981J5602J7281J8791J9761J9783J8496J5695J1366N697r82q258
1504G51211j5688k2839k9288l4655l8636m1057m1906m1340l9641l7119l4030l0514
1492C44498k6606k2290j7579j2601p609k959R87L932N698O224N524L671Q10k823
1478B78877o879j0926j4516j7309j9181k0295k1050k1946k3375k5471k8054l0693
1466C9182F330b7704l3880l2217k9071k4648j9301j3488p698k390K074N447P616
1453a75260Q579Q419P282N350K856O6k712n184p111q383r045r280r360r563j0093
1438b13439j1030j2303j3687j4848j5402j5000j3420j0619o743k081L004Q140
1426c17428J2999J7313K0878K3570K5340K6215K6277K5649K4479K2928K1172J9370
1414e1238J7663J6163b439A1747J3888J4101J4772J5766J6894J7961J8803J9301
1402A43233J9365J8891J7750J5793J2911R125M646j18m637q384j0962j2184j2091
1389A93338j0916r029o884m952l652l261l851n293p313r613j1969j4275j6514
1376H5816j8671k0657k2261A068b1941k1561j8783j4936j0547o295k818n44M30
1363i6995L24m22j328k017k315k241j917j449q40L4J357L271N786Q733J1760J4396
1347f3863J6120J6452J5055d405B562R41b052j1737j6861k0361k1934k1572j9551
1334a14068j6383j2726r280o667n312n355o625q705j1054j3157j4630j5279j5080
1321b54321j4127j2572j0575q273n777l181n58K029M532O925R201J1354J3352
1308b61991J5128J6590J7638J8197J8226J7733J6764J5413J3795J2043J0282Q626
1296h1556P187O071N348N006M915M827M441L514J960j09k405m548o172p021p000
1281f5542o180m756k968j001J066L276N733Q517J1626J4942a7018D365K4098K6310
1267E4773K8015K9298L0267L0992L1447L1508L1004K9781K7784K5082K1855J8342
1255C90148J4789J1391Q254N384K706J15k474n068p594r912j1871j3357j4340
1242C68171j4855j4980j4773j4225j3260j1762r657o979l920q19J903L849M743
1229B73436M486L154R58j785m693p340r295j0194r813q102n208j406K948P495
1215B34641J1905J5901J9256K1793K3400K4050K3826K2929K1651K0305J9143J8315
1203D77115J7837J7612J7468J7179J6506J5237J3239J0500P146L409m55m267p966
1190F00560j1591j5202j8807k2320k5595k8475l0853l2697l4030l4904l5358l5400
1178B75328l4982l4017l2406l0077k7047k3448j9539j5660j2178r388p472o479
1166B2635o375p090F22a0036j3265j6119j8886k1193k2724k3292k2888k1664j9850
1153a89917j7685j5334j2887j0378p840n331k933p43J179K830M297N756P431R547
1139b32008J2247J5534J9242K3053K6562K9355L1086L1536a2744A5780K5399K1585
1127F2764J7417J3216R288N917L352J764J192J511K430L538M382M559L797K008
1113A37135p25m189q124j2262j6356k0166k3440k5919a417k7664k6803k4961k2435
1100a03280j9597j6826j4468j2785j1907j1787j2195j2758j3068j2780j1699r810
1088b62960p229m141p15K938O780J0812J5016J9304K3509K7387L0676L3133L4597
1075g0893L5032a334C1937L1461K9224K6562K3386J9573J5073R971M513r33n945
1062A84822j0126j3173j4900j5255j4315j2268r381n954k272J431M973Q213J1022
1049A12817J3270J4826J5555J5353J4187J2147R459O475L586J130o81j789k259
1036B14076k212j784j090k42O44J429J964K120J830J114Q3j093k244l278m236
1021B07081n298o725q738j1399j4557j7860k0846k3083k4267k4311k3334E027
1008a4582j7677j6199j5421j5412j6052j7068j8109j8839j9002j8442j7090j4951
996b18844j2078q576m609m02L754P555J0726J3091J4610J5365J5509J5177J4420
983a34302J3193J1391Q913N752K022k035o108r893j3165j5804j7769j9058j9661
970a96524j9539j8643j6936j4429j1192p365l137J289N708R943J3828J7206J9906
957b19885K1757K2619K2423K1203J9109J6376J3286J0145P239M811L032J962J556
944e4367J680K170K898L820M988O523Q554J1142A641J7638K1037K4061K6354K7655
930A18386K7825K6853K4817K1870J8240J4214J0132O338L107O11j118k147k589
917B66539k524j961q25R90L566O883J0752J4809J8548K1436K3031K3081K1575
904D05900J8729J4926J0631O302K321j050l701n639o960p793q270q514q658q858
890C99366r293j0138j1507j3395j5629j7860j9624k0436j9915j7885j4419r811
878B19454m528Q94N917J0073J3010J4506J4491J3031J0320O671K484j792n752
865B98779r130j1866j4123j6207j8469k1153k4301k7697l0893l3298l4327B3773
852f995k6148k0105j3235o174N31O477J1410J5201J7791b069A7331J8552J6763
839E2646J4202J1051P471L603m38m531q528j2235j5402j7754A1060g960j7684
826b5644j5125j1617p557l404L93L435N410O123N496L575N08l457q002j2757j7329
811g9952k1360k4585k6858k8174k8627k8368k7550k6297k4674k2695k0333j7574
799c77047j4451j1078p622m261j120J752M371O783R012J1050J2867J4431J5746
786c39567J6867J7888J8928K0091K1432K2954K4604K6319K8029K9673L1169L2389
774d9224a6078A7146L2431L0663K7961K4506K0581J6486J2450Q578M856J195k488
761A94365o203r846j3213j6059j8164j9410j9808j9505j8749j7828j6996B179
748a3892j5883j5655j5201j4386j3157j1522r533p264m811k294J37K320M095N339
734a11707N972N964N328M096K316L6k689n778r130j2603j6030j9216k1947k4003
720a99391k5190k5352k4411k2373j9348j5529j1182o587k011K347O352R928J3045
707c19702J5689J7871J9638K1071K2278K3341K4281K5034K5470K5417K4696K3122
695e1794K0532a4429b366D077L99a042j0728j4731j7220j8108j7549j5887j3584
682a08849j1112q849p012n658m720m062l527k976k307j468m48P52K143L743N545
667a48805P480R399J1086J2305J2862J2659J1725J0211Q347O398M597L107J990
654c6639J215O85K79q6m37p35q81p56k55O71J981L552N196O713P938b792F382
636A5584Q939Q505Q030P638P425P443P704Q178Q795R453J0024J0362J0331R845
622A38256Q908P628O203M876L868L336L362L950N042O525Q231R948J1470J2625
608B34228J3318J3534J3296J2638J1579J0133Q336O261L994J620q22l361o096
595C18658r178j2753j6897k1537k6424l1136l5157l7990l9260l8800A2869b0186
582d8535k2962j7344j1945p159l275m33J401K416K859K947K767K261J265m02k841
567i8980o022r769j3807j7796k1405k4344k6404k7464k7495k6538k4697k2127
555c46848j9026j5606j2080q630n396k470R5K281M111N652P021Q363R810J1446
541c61277J3284J5249J7183J8867K0062K0576K0358J9529J8366J7200J6276J5655
529a48672J5173J4502J3271J1199Q212M490M34l416o515q434q960q113o123l344
515a26296j67L046O015Q572J0670J2365J3764J4958J5978J6764g129A0032J6563
502B6595J5414J3829J1988J0091Q305O728N393M290L411K790K509K673L349M503
488A21868N983P532Q851R672R810R180P785N695L042K3l080n903q053r167r015
473A54223p553m943j510K343O238R903J3217J6203J8980K1676K4349K6943K9291
460C09360L1173L2396L2854L2542L1542K9961K7886K5355K2363J8912J5064J0977
448F20385O891L067l02l149n546p649r611j1505j3299j4864j6033j6657j6658
435E15070j6063j4992j3639j2203j0833r603q502p486o498n496m429l247j892
422D00187l50J322K977M387N299N499M853L323R42k198n962j0141j4428j8437
408C77273k1741k3981k4936k4548k2893k0105j6330j1723o464q11M911J0314J5003
395B33969J8604K0809K1412K0329J7616J3472Q219K290l814r558j4459j8167k0538
382B90184k1655k1772k1239k0380j9448j8582j7837j7223j6726j6338j6028j5727
370F7229j5304j4577j3346j1442C751a800j978J447A848N760N920M678K325o34
356A9897l599n996B918d598o351m018p76L042e628E328J4370J7058J8868J9768
342G5392J9837J9243J8189J6884J5515J4248J3232J2581J2341J2457J2749J2952
330B55620J2782J2028J0615Q612O212L643J067j486m143p127j0658j4841j9603
317B52721k4679k9661l4076l7468l9479l9915H664b7598l2717k8573k4292k0298
305a33478j6944j4484j3057j2652j3100j4087j5177j5883j5748j4443j1834q015
293b98902l288J912P123J1951J6135J9561K2224K4180K5488K6197K6338K5960
281i5121K5139K3961K2502b753A5910J6021J2638Q403L380k157p776j3021A5876
267e188k3586k5104k5651k5235k3842k1491j8277j4408j0188n961k045J332M041
254a95603O046P357Q025Q120P745P012O004M759L262J485n60k791n055p160q917
239a60271j0179j0870j0975j0537r633q369o874n283l736k340j188l43J40K28
225b40230o9o42j253j530j028O66L795Q320J3869J9797K5326K9743L2558L3597
211g7081L2998a2942A5591K5692K3025K0758J8878J7170J5260J2740R278M725
199A63117q21p024j3375j9317k4368k8200l0672G545b4132l0481k8375k5558k2262
186a30808j8766j5369j2341r841p861o212m562k540J45L612P762J2318J6904K1153
172a46406K4800K7728K9968L1640E97L3689L4018L3668L2420L0108K6671K2151
160B13322J6681J0451L699l291j0209j6718k2487k7212l0656l2685l3302l2638
148C4955D036b4347k5219k1525j7334j2684p678k517K517P126J1068J4206J6540
135e9847J8172J9258b493A7731K0127J9534J8351J6525J4087J1131P790M190M24
122A29890l431p290j1024j4471j7474j9934k1839A1173a3110k5008k5467k5645
110h9230k5488k4921k3869k2278k0140j7501j4465j1148p638l956m8M180Q788
97b47714J3725J8795K3675K7997L1433L3762L4872b8713D670L0843K7192K2579
85H5284J7248J1545N867O21l844p261r471j0423j0175q883o780m137j226J704
71F0069M440O783Q542R532R601Q674O789M096Q36k701o223r451j2138j4087j5168
56E9594j5353j4738j3523C986f468r162q259p728p401p011o287n027l162p41K099
41e9147N195Q389J1555J4579b089A7623K1590K2926K3774K4283K4652K5067K5648
28A85563K6406K7253K8008K8447K8346K7543K5993K3777K1079J8132J5141J2242
16D67930R472O790M110J343j562m573p588j0430j2905j4838j6113j6703j6668
3C88265j6152j5358j4512
0C42243
##END NTUPLES=NMR SPECTRUM
##END=
