##TITLE=13c deptQgpsp TBI ns 4k
##JCAMPDX= 6.0         $$ Bruker NMR JCAMP-DX V2.0
##DATA TYPE= NMR FID
##DATA CLASS= NTUPLES
##ORIGIN= Bruker BioSpin GmbH
##OWNER= ocmess
##LONG DATE= 2009/06/26 05:37:37+0000
$$ 1.90.2.2 TopSpin 3.5.b.91 pl 7
$$ 2020-02-21 07:19:36.335 +0100  nes@nmr-nesnotebook
$$ Compression mode = diff/dup
##.OBSERVE FREQUENCY= 150.93550309
##.OBSERVE NUCLEUS= ^13C
##.DELAY= (6, 6)
##.ACQUISITION MODE= SIMULTANEOUS (DQD)
##.ACQUISITION SCHEME= undefined
##.AVERAGES= 744
##.DIGITISER RES= 21
##SPECTROMETER/DATA SYSTEM= spect
##.PULSE SEQUENCE= deptqgpsp
##.SOLVENT NAME= DMSO
##.SHIFT REFERENCE= INTERNAL, DMSO, 1, 219.4662
##AUDIT TRAIL= $$ (NUMBER, WHEN, WHO, WHERE, PROCESS, VERSION, WHAT)
$$ ##TITLE= Audit trail, TOPSPIN		Version 2.1
$$ ##JCAMPDX= 5.01
$$ ##ORIGIN= Bruker BioSpin GmbH
$$ ##OWNER= ocmess
$$ $$ /opt/topspin/data/ocmess/nmr/nesEX69/6/audita.txt
$$ ##AUDIT TRAIL=  $$ (NUMBER, WHEN, WHO, WHERE, PROCESS, VERSION, WHAT)
(   1,<2009-06-26 07:39:59.074 +0200>,<ocmess>,<av600>,<go>,<TOPSPIN 2.1>,
      <created by zg
	started at 2009-06-26 06:16:00.205 +0200,
	POWCHK disabled, PULCHK disabled,
       terminated by command 'halt'
       configuration hash MD5:
       4D EB 05 20 4E C2 27 D5 8C 2B 1E 6A A2 4F 3F 0E
       data hash MD5: 256K
       1C BC AB 00 27 96 03 01 F9 91 82 6F CE 42 C7 16>)
$$ ##END=
$$ 
$$ $$ hash MD5
$$ $$ 01 28 0D A9 A2 97 EA 16 E7 4D 7D 1F 90 B8 39 0B
##$RELAX= 
##$BRUKER FILE EXP=cpdprg2
$$ ;$OWNER=Bruker
$$ 1 pcpd*3:180
$$   pcpd*4:0
$$   pcpd*2:180
$$   pcpd*3:0
$$   pcpd  :180
$$   pcpd*2:0
$$   pcpd*4:180
$$   pcpd*2:0
$$   pcpd*3:180
$$ 2 pcpd*3:0
$$   pcpd*4:180
$$   pcpd*2:0
$$   pcpd*3:180
$$   pcpd  :0
$$   pcpd*2:180
$$   pcpd*4:0
$$   pcpd*2:180
$$   pcpd*3:0
$$   lo to 2 times 2
$$ 3 pcpd*3:180
$$   pcpd*4:0
$$   pcpd*2:180
$$   pcpd*3:0
$$   pcpd  :180
$$   pcpd*2:0
$$   pcpd*4:180
$$   pcpd*2:0
$$   pcpd*3:180
$$   jump to 1
##$RELAX= 
##$BRUKER FILE EXP=format.temp
$$ EDIT_PAR COMMAND FILE
$$ 
$$ DI_MODE         LONG
$$ ED_ENTRY        ACQU
$$ ORDER           FILE
$$ 
$$ 
$$ HEADER		"F2 - Acquisition Parameters"
$$ T_NAME		Date_
$$ 		TYPE	R64
$$ 		CLASS	ACQU
$$ 		SUBRANGE 0.0 50000000
$$ 		REL	"Date_=itodate(DATE)"
$$ 		INV_REL	"DATE=datetoi(Date_,DATE)"
$$ 		FORMAT	"%14.0f"
$$ 		TEXT	" "
$$ END
$$ T_NAME		Time
$$ 		TYPE	R32
$$ 		CLASS	ACQU
$$ 		SUBRANGE 0.0 1000000
$$ 		REL	"Time=itotime(DATE)"
$$ 		INV_REL	"DATE=timetoi(Time,DATE)"
$$ 		FORMAT	"%14.2f"
$$ 		TEXT	" "
$$ END
$$ NAME		INSTRUM
$$ 		TEXT	" "
$$ END
$$ NAME		PROBHD
$$ 		FORMAT	"%14.14s"
$$ 		TEXT	" "
$$ END
$$ NAME		PULPROG
$$ 		TEXT	" "
$$ END
$$ NAME		TD
$$ 		TEXT	" "
$$ END
$$ NAME		SOLVENT
$$ 		TEXT	" "
$$ END
$$ NAME		NS
$$ 		TEXT	" "
$$ END
$$ NAME		DS
$$ 		TEXT	" "
$$ END
$$ T_NAME		SWH
$$ 		TYPE	R32
$$ 		CLASS	ACQU
$$ 		SUBRANGE 0.0 1e8
$$ 		REL	"SWH=SW*SFO1"
$$ 		INV_REL "SW=SWH/SFO1"
$$ 		UNIT	"Hz"
$$ 		FORMAT	"%14.3f Hz"
$$ 		TEXT	" "
$$ END
$$ T_NAME          FIDRES
$$                 TYPE    R32
$$                 CLASS   ACQU
$$                 SUBRANGE 0.0 100000
$$                 REL     "FIDRES=SW*SFO1/TD"
$$                 INV_REL "TD = nextpow(SW*SFO1/FIDRES)"
$$ 		UNIT	"Hz"
$$ 		FORMAT	"%14.6f Hz"
$$ 		TEXT	" "
$$ END
$$ T_NAME          AQ
$$ 		TYPE	R32
$$ 		CLASS	ACQU
$$ 		SUBRANGE 0.0 1000
$$ 		REL	"AQ=aqcalc(SW,SFO1,TD,DIGTYP)"
$$ 		INV_REL	"TD=tdcalc(SW,SFO1,1.0e6*AQ,DIGTYP)"
$$ 		UNIT	"sec"
$$ 		FORMAT	"%14.7f sec"
$$ 		TEXT	" "
$$ END
$$ NAME		RG
$$ 		TEXT	" "
$$ END
$$ T_NAME          DW
$$ 		TYPE	R32
$$ 		CLASS	ACQU
$$ 		SUBRANGE 0.0 1000000
$$ 		REL	"DW=1/(2*SW*SFO1)"
$$ 		INV_REL	"SW=1000000/(2*(0.005+DW)*SFO1)"
$$ 		UNIT	"usec"
$$ 		FORMAT	"%14.3lf usec"
$$ 		TEXT	" "
$$ END
$$ NAME		DE
$$ 		FORMAT	"%14.2f usec"
$$ 		TEXT	" "
$$ END
$$ NAME		TE
$$ 		FORMAT	"%14.1f K"
$$ 		TEXT	" "
$$ END
$$ T_NAME		CNST2
$$ 		TYPE	R32
$$ 		CLASS	ACQU
$$ 		SUBRANGE -1e38 1e38
$$ 		REL	"CNST2=CNST[2]"
$$ 		INV_REL	"CNST[2]=CNST2"
$$ 		FORMAT	"%14.7f"
$$ 		TEXT	" "
$$ END
$$ T_NAME		CNST12
$$ 		TYPE	R32
$$ 		CLASS	ACQU
$$ 		SUBRANGE -1e38 1e38
$$ 		REL	"CNST12=CNST[12]"
$$ 		INV_REL	"CNST[12]=CNST12"
$$ 		FORMAT	"%14.7f"
$$ 		TEXT	" "
$$ END
$$ T_NAME		D1
$$ 		TYPE	R32
$$ 		CLASS	ACQU
$$ 		SUBRANGE 0.0 1e38
$$ 		REL	"D1=D[1]"
$$ 		INV_REL	"D[1]=D1"
$$ 		UNIT	"sec"
$$ 		FORMAT	"%14.8f sec"
$$ 		TEXT	" "
$$ END
$$ T_NAME		D2
$$ 		TYPE	R32
$$ 		CLASS	ACQU
$$ 		SUBRANGE 0.0 1e38
$$ 		REL	"D2=D[2]"
$$ 		INV_REL	"D[2]=D2"
$$ 		UNIT	"sec"
$$ 		FORMAT	"%14.8f sec"
$$ 		TEXT	" "
$$ END
$$ T_NAME		D12
$$ 		TYPE	R32
$$ 		CLASS	ACQU
$$ 		SUBRANGE 0.0 1e38
$$ 		REL	"D12=D[12]"
$$ 		INV_REL	"D[12]=D12"
$$ 		UNIT	"sec"
$$ 		FORMAT	"%14.8f sec"
$$ 		TEXT	" "
$$ END
$$ T_NAME		D16
$$ 		TYPE	R32
$$ 		CLASS	ACQU
$$ 		SUBRANGE 0.0 1e38
$$ 		REL	"D16=D[16]"
$$ 		INV_REL	"D[16]=D16"
$$ 		UNIT	"sec"
$$ 		FORMAT	"%14.8f sec"
$$ 		TEXT	" "
$$ END
$$ NAME		TD0
$$ 		TEXT	" "
$$ END
$$ HEADER		"======== CHANNEL f1 ========"
$$ NAME		NUC1
$$ 		NONEDIT
$$ 		TEXT	" "
$$ END
$$ T_NAME		P1
$$ 		TYPE	R32
$$ 		CLASS	ACQU
$$ 		SUBRANGE 0.0 1.0e10
$$ 		REL	"P1=P[1]"
$$ 		INV_REL	"P[1]=P1"
$$ 		UNIT	"usec"
$$ 		FORMAT	"%14.2f usec"
$$ 		TEXT	" "
$$ END
$$ T_NAME		P12
$$ 		TYPE	R32
$$ 		CLASS	ACQU
$$ 		SUBRANGE 0.0 1.0e10
$$ 		REL	"P12=P[12]"
$$ 		INV_REL	"P[12]=P12"
$$ 		UNIT	"usec"
$$ 		FORMAT	"%14.2f usec"
$$ 		TEXT	" "
$$ END
$$ T_NAME		PL0
$$ 		TYPE	R32
$$ 		CLASS	ACQU
$$ 		SUBRANGE -6.0 1e38
$$ 		REL	"PL0=PL[0]"
$$ 		INV_REL	"PL[0]=PL0"
$$ 		UNIT	"dB"
$$ 		FORMAT	"%14.2f dB"
$$ 		TEXT	" "
$$ END
$$ T_NAME		PL1
$$ 		TYPE	R32
$$ 		CLASS	ACQU
$$ 		SUBRANGE -6.0 1e38
$$ 		REL	"PL1=PL[1]"
$$ 		INV_REL	"PL[1]=PL1"
$$ 		UNIT	"dB"
$$ 		FORMAT	"%14.2f dB"
$$ 		TEXT	" "
$$ END
$$ T_NAME		PL0W
$$ 		TYPE	R32
$$ 		CLASS	ACQU
$$ 		SUBRANGE -6.0 1e38
$$ 		REL	"PL0W=329*pow(10.0,(-6-PL[0])/10.0)"
$$ 		INV_REL	"PL[0]=-6-4.3425*log(PL0W/329)"
$$ 		UNIT	"no"
$$ 		FORMAT	"%14.8f W"
$$ 		TEXT	" "
$$ END
$$ T_NAME		PL1W
$$ 		TYPE	R32
$$ 		CLASS	ACQU
$$ 		SUBRANGE -6.0 1e38
$$ 		REL	"PL1W=329*pow(10.0,(-6-PL[1])/10.0)"
$$ 		INV_REL	"PL[1]=-6-4.3425*log(PL1W/329)"
$$ 		UNIT	"no"
$$ 		FORMAT	"%14.8f W"
$$ 		TEXT	" "
$$ END
$$ NAME		SFO1
$$ 		FORMAT	"%14.7f MHz"
$$ 		TEXT	" "
$$ END
$$ T_NAME		SP2
$$ 		TYPE	R32
$$ 		CLASS	ACQU
$$ 		SUBRANGE -6.0 120
$$ 		REL	"SP2=SP[2]"
$$ 		INV_REL	"SP[2]=SP2"
$$ 		UNIT	"dB"
$$ 		FORMAT	"%14.2f dB"
$$ 		TEXT	" "
$$ END
$$ NAME		SPNAM2
$$ 		TEXT	" "
$$ END
$$ T_NAME		SPOAL2
$$ 		TYPE	R32
$$ 		CLASS	ACQU
$$ 		SUBRANGE -1.0 1.0
$$ 		REL	"SPOAL2=SPOAL[2]"
$$ 		INV_REL	"SPOAL[2]=SPOAL2"
$$ 		FORMAT	"%14.3f"
$$ 		TEXT	" "
$$ END
$$ T_NAME		SPOFFS2
$$ 		TYPE	R32
$$ 		CLASS	ACQU
$$ 		SUBRANGE -1e38 1e38
$$ 		REL	"SPOFFS2=SPOFFS[2]"
$$ 		INV_REL	"SPOFFS[0]=SPOFFS0"
$$ 		UNIT	"Hz"
$$ 		FORMAT	"%14.2f Hz"
$$ 		TEXT	" "
$$ END
$$ HEADER		"======== CHANNEL f2 ========"
$$ NAME		CPDPRG2
$$ 		TEXT	" "
$$ END
$$ NAME		NUC2
$$ 		NONEDIT
$$ 		TEXT	" "
$$ END
$$ T_NAME		P0
$$ 		TYPE	R32
$$ 		CLASS	ACQU
$$ 		SUBRANGE 0.0 1.0e10
$$ 		REL	"P0=P[0]"
$$ 		INV_REL	"P[0]=P0"
$$ 		UNIT	"usec"
$$ 		FORMAT	"%14.2f usec"
$$ 		TEXT	" "
$$ END
$$ T_NAME		P3
$$ 		TYPE	R32
$$ 		CLASS	ACQU
$$ 		SUBRANGE 0.0 1.0e10
$$ 		REL	"P3=P[3]"
$$ 		INV_REL	"P[3]=P3"
$$ 		UNIT	"usec"
$$ 		FORMAT	"%14.2f usec"
$$ 		TEXT	" "
$$ END
$$ T_NAME		P4
$$ 		TYPE	R32
$$ 		CLASS	ACQU
$$ 		SUBRANGE 0.0 1.0e10
$$ 		REL	"P4=P[4]"
$$ 		INV_REL	"P[4]=P4"
$$ 		UNIT	"usec"
$$ 		FORMAT	"%14.2f usec"
$$ 		TEXT	" "
$$ END
$$ T_NAME		PCPD2
$$ 		TYPE	R32
$$ 		CLASS	ACQU
$$ 		SUBRANGE 0 1e38
$$ 		REL	"PCPD2=PCPD[2]"
$$ 		INV_REL	"PCPD[2]=PCPD2"
$$ 		UNIT	"usec"
$$ 		FORMAT	"%14.2f usec"
$$ 		TEXT	" "
$$ END
$$ T_NAME		PL2
$$ 		TYPE	R32
$$ 		CLASS	ACQU
$$ 		SUBRANGE -6.0 1e38
$$ 		REL	"PL2=PL[2]"
$$ 		INV_REL	"PL[2]=PL2"
$$ 		UNIT	"dB"
$$ 		FORMAT	"%14.2f dB"
$$ 		TEXT	" "
$$ END
$$ T_NAME		PL12
$$ 		TYPE	R32
$$ 		CLASS	ACQU
$$ 		SUBRANGE -6.0 1e38
$$ 		REL	"PL12=PL[12]"
$$ 		INV_REL	"PL[12]=PL12"
$$ 		UNIT	"dB"
$$ 		FORMAT	"%14.2f dB"
$$ 		TEXT	" "
$$ END
$$ T_NAME		PL2W
$$ 		TYPE	R32
$$ 		CLASS	ACQU
$$ 		SUBRANGE -6.0 1e38
$$ 		REL	"PL2W=47*pow(10.0,(-6-PL[2])/10.0)"
$$ 		INV_REL	"PL[2]=-6-4.3425*log(PL2W/47)"
$$ 		UNIT	"no"
$$ 		FORMAT	"%14.8f W"
$$ 		TEXT	" "
$$ END
$$ T_NAME		PL12W
$$ 		TYPE	R32
$$ 		CLASS	ACQU
$$ 		SUBRANGE -6.0 1e38
$$ 		REL	"PL12W=47*pow(10.0,(-6-PL[12])/10.0)"
$$ 		INV_REL	"PL[12]=-6-4.3425*log(PL12W/47)"
$$ 		UNIT	"no"
$$ 		FORMAT	"%14.8f W"
$$ 		TEXT	" "
$$ END
$$ NAME		SFO2
$$ 		FORMAT	"%14.7f MHz"
$$ 		TEXT	" "
$$ END
$$ HEADER		"====== GRADIENT CHANNEL ====="
$$ NAME		GPNAM1
$$ 		TEXT	" "
$$ END
$$ NAME		GPNAM2
$$ 		TEXT	" "
$$ END
$$ NAME		GPNAM3
$$ 		TEXT	" "
$$ END
$$ T_NAME		GPZ1
$$ 		TYPE	R32
$$ 		CLASS	ACQU
$$ 		SUBRANGE -100.0 100.0
$$ 		REL	"GPZ1=GPZ[1]"
$$ 		INV_REL	"GPZ[1]=GPZ1"
$$ 		UNIT	"%"
$$ 		FORMAT	"%14.2f %"
$$ 		TEXT	" "
$$ END
$$ T_NAME		GPZ2
$$ 		TYPE	R32
$$ 		CLASS	ACQU
$$ 		SUBRANGE -100.0 100.0
$$ 		REL	"GPZ2=GPZ[2]"
$$ 		INV_REL	"GPZ[2]=GPZ2"
$$ 		UNIT	"%"
$$ 		FORMAT	"%14.2f %"
$$ 		TEXT	" "
$$ END
$$ T_NAME		GPZ3
$$ 		TYPE	R32
$$ 		CLASS	ACQU
$$ 		SUBRANGE -100.0 100.0
$$ 		REL	"GPZ3=GPZ[3]"
$$ 		INV_REL	"GPZ[3]=GPZ3"
$$ 		UNIT	"%"
$$ 		FORMAT	"%14.2f %"
$$ 		TEXT	" "
$$ END
$$ T_NAME		P16
$$ 		TYPE	R32
$$ 		CLASS	ACQU
$$ 		SUBRANGE 0.0 1.0e10
$$ 		REL	"P16=P[16]"
$$ 		INV_REL	"P[16]=P16"
$$ 		UNIT	"usec"
$$ 		FORMAT	"%14.2f usec"
$$ 		TEXT	" "
$$ END
##$RELAX= 
##$BRUKER FILE EXP=scon2
$$ ##TITLE= Parameter file, TOPSPIN		Version 2.1
$$ ##JCAMPDX= 5.0
$$ ##DATATYPE= Parameter Values
$$ ##NPOINTS= 2	$$ modification sequence number
$$ ##ORIGIN= Bruker BioSpin GmbH
$$ ##OWNER= ocmess
$$ $$ 2009-06-26 06:16:00.079 +0200  ocmess@av600
$$ $$ /opt/topspin/data/ocmess/nmr/nesEX69/6/scon2
$$ $$ process /opt/topspin2.1/prog/mod/go
$$ ##$BLKTR= (0..15)
3 3 3 3 3 3 3 3 3 3 3 3 3 3 3 3
$$ ##$DE1= 4.5
$$ ##$DEADC= 0.5
$$ ##$DEPA= 4.5
$$ ##$DERX= 1.5
$$ ##$FILCOR= 0.7
$$ ##END=
##$RELAX= 
##$BRUKER FILE EXP=spnam2
$$ ##TITLE= sm. comp. Chirp: 60kHz, 2ms
$$ ##JCAMP-DX= 5.00 Bruker JCAMP library
$$ ##DATA TYPE= Shape Data
$$ ##ORIGIN= Bruker BioSpin GmbH
$$ ##OWNER= <demo>
$$ ##DATE= 2005/09/22
$$ ##TIME= 18:40:13
$$ ##$SHAPE_PARAMETERS= Type: CompositeSmoothedChirp Add Const. Phase -84.0
$$ ##MINX= 0.000000E00
$$ ##MAXX= 1.000000E02
$$ ##MINY= 1.110750E-01
$$ ##MAXY= 3.599617E02
$$ ##$SHAPE_EXMODE= CompositeAdiabatic
$$ ##$SHAPE_TOTROT= 1.800000E02
$$ ##$SHAPE_TYPE= Refocussing
$$ ##$SHAPE_USER_DEF= 
$$ ##$SHAPE_REPHFAC= 
$$ ##$SHAPE_BWFAC= 8.099400E01
$$ ##$SHAPE_BWFAC50= 
$$ ##$SHAPE_INTEGFAC= 2.558317E-02
$$ ##$SHAPE_MODE= 0
$$ ##NPOINTS= 4000
$$ ##XYPOINTS= (XY..XY)
$$ 0.000000E00, 1.833013E02
$$ 7.893367E-01, 1.779122E02
$$ 1.578624E00, 1.725338E02
$$ 2.367813E00, 1.671662E02
$$ 3.156855E00, 1.618093E02
$$ 3.945700E00, 1.564633E02
$$ 4.734299E00, 1.511282E02
$$ 5.522603E00, 1.458037E02
$$ 6.310563E00, 1.404901E02
$$ 7.098130E00, 1.351873E02
$$ 7.885255E00, 1.298954E02
$$ 8.671888E00, 1.246142E02
$$ 9.457981E00, 1.193437E02
$$ 1.024348E01, 1.140841E02
$$ 1.102835E01, 1.088353E02
$$ 1.181253E01, 1.035973E02
$$ 1.259597E01, 9.837015E01
$$ 1.337863E01, 9.315375E01
$$ 1.416045E01, 8.794815E01
$$ 1.494139E01, 8.275335E01
$$ 1.572140E01, 7.756935E01
$$ 1.650044E01, 7.239615E01
$$ 1.727844E01, 6.723375E01
$$ 1.805537E01, 6.208215E01
$$ 1.883117E01, 5.694135E01
$$ 1.960579E01, 5.181135E01
$$ 2.037920E01, 4.669215E01
$$ 2.115134E01, 4.158375E01
$$ 2.192216E01, 3.648615E01
$$ 2.269161E01, 3.139935E01
$$ 2.345965E01, 2.632335E01
$$ 2.422623E01, 2.125815E01
$$ 2.499130E01, 1.620375E01
$$ 2.575481E01, 1.116015E01
$$ 2.651671E01, 6.127350E00
$$ 2.727697E01, 1.105350E00
$$ 2.803552E01, 3.560941E02
$$ 2.879233E01, 3.510937E02
$$ 2.954734E01, 3.461042E02
$$ 3.030052E01, 3.411253E02
$$ 3.105180E01, 3.361573E02
$$ 3.180115E01, 3.312001E02
$$ 3.254852E01, 3.262537E02
$$ 3.329386E01, 3.213182E02
$$ 3.403713E01, 3.163933E02
$$ 3.477828E01, 3.114793E02
$$ 3.551726E01, 3.065761E02
$$ 3.625402E01, 3.016837E02
$$ 3.698853E01, 2.968021E02
$$ 3.772073E01, 2.919314E02
$$ 3.845058E01, 2.870713E02
$$ 3.917804E01, 2.822221E02
$$ 3.990306E01, 2.773837E02
$$ 4.062559E01, 2.725561E02
$$ 4.134558E01, 2.677394E02
$$ 4.206301E01, 2.629333E02
$$ 4.277781E01, 2.581382E02
$$ 4.348994E01, 2.533537E02
$$ 4.419937E01, 2.485802E02
$$ 4.490604E01, 2.438174E02
$$ 4.560992E01, 2.390654E02
$$ 4.631095E01, 2.343241E02
$$ 4.700910E01, 2.295937E02
$$ 4.770431E01, 2.248741E02
$$ 4.839656E01, 2.201653E02
$$ 4.908579E01, 2.154674E02
$$ 4.977196E01, 2.107801E02
$$ 5.045503E01, 2.061038E02
$$ 5.113496E01, 2.014381E02
$$ 5.181170E01, 1.967834E02
$$ 5.248522E01, 1.921393E02
$$ 5.315546E01, 1.875062E02
$$ 5.382239E01, 1.828837E02
$$ 5.448597E01, 1.782721E02
$$ 5.514615E01, 1.736713E02
$$ 5.580290E01, 1.690813E02
$$ 5.645617E01, 1.645021E02
$$ 5.710592E01, 1.599337E02
$$ 5.775212E01, 1.553761E02
$$ 5.839471E01, 1.508293E02
$$ 5.903367E01, 1.462934E02
$$ 5.966895E01, 1.417682E02
$$ 6.030051E01, 1.372537E02
$$ 6.092832E01, 1.327501E02
$$ 6.155232E01, 1.282573E02
$$ 6.217250E01, 1.237754E02
$$ 6.278880E01, 1.193041E02
$$ 6.340118E01, 1.148438E02
$$ 6.400962E01, 1.103941E02
$$ 6.461407E01, 1.059553E02
$$ 6.521449E01, 1.015274E02
$$ 6.581085E01, 9.711015E01
$$ 6.640311E01, 9.270375E01
$$ 6.699124E01, 8.830815E01
$$ 6.757518E01, 8.392335E01
$$ 6.815492E01, 7.954935E01
$$ 6.873041E01, 7.518615E01
$$ 6.930162E01, 7.083375E01
$$ 6.986851E01, 6.649215E01
$$ 7.043105E01, 6.216135E01
$$ 7.098920E01, 5.784135E01
$$ 7.154293E01, 5.353215E01
$$ 7.209220E01, 4.923375E01
$$ 7.263698E01, 4.494615E01
$$ 7.317723E01, 4.066935E01
$$ 7.371292E01, 3.640335E01
$$ 7.424402E01, 3.214815E01
$$ 7.477049E01, 2.790375E01
$$ 7.529231E01, 2.367015E01
$$ 7.580943E01, 1.944735E01
$$ 7.632183E01, 1.523535E01
$$ 7.682948E01, 1.103415E01
$$ 7.733233E01, 6.843750E00
$$ 7.783037E01, 2.664150E00
$$ 7.832356E01, 3.584954E02
$$ 7.881187E01, 3.543373E02
$$ 7.929527E01, 3.501902E02
$$ 7.977373E01, 3.460537E02
$$ 8.024722E01, 3.419282E02
$$ 8.071571E01, 3.378133E02
$$ 8.117917E01, 3.337094E02
$$ 8.163757E01, 3.296161E02
$$ 8.209089E01, 3.255337E02
$$ 8.253909E01, 3.214621E02
$$ 8.298215E01, 3.174013E02
$$ 8.342003E01, 3.133514E02
$$ 8.385272E01, 3.093122E02
$$ 8.428019E01, 3.052837E02
$$ 8.470240E01, 3.012662E02
$$ 8.511934E01, 2.972593E02
$$ 8.553097E01, 2.932634E02
$$ 8.593728E01, 2.892781E02
$$ 8.633823E01, 2.853038E02
$$ 8.673380E01, 2.813401E02
$$ 8.712396E01, 2.773873E02
$$ 8.750870E01, 2.734453E02
$$ 8.788799E01, 2.695142E02
$$ 8.826180E01, 2.655938E02
$$ 8.863011E01, 2.616842E02
$$ 8.899290E01, 2.577854E02
$$ 8.935014E01, 2.538973E02
$$ 8.970182E01, 2.500202E02
$$ 9.004790E01, 2.461537E02
$$ 9.038838E01, 2.422981E02
$$ 9.072323E01, 2.384533E02
$$ 9.105242E01, 2.346193E02
$$ 9.137594E01, 2.307962E02
$$ 9.169376E01, 2.269838E02
$$ 9.200588E01, 2.231821E02
$$ 9.231226E01, 2.193914E02
$$ 9.261288E01, 2.156114E02
$$ 9.290774E01, 2.118421E02
$$ 9.319681E01, 2.080838E02
$$ 9.348008E01, 2.043361E02
$$ 9.375751E01, 2.005993E02
$$ 9.402911E01, 1.968733E02
$$ 9.429485E01, 1.931581E02
$$ 9.455471E01, 1.894537E02
$$ 9.480868E01, 1.857602E02
$$ 9.505675E01, 1.820774E02
$$ 9.529889E01, 1.784053E02
$$ 9.553510E01, 1.747442E02
$$ 9.576535E01, 1.710937E02
$$ 9.598963E01, 1.674542E02
$$ 9.620794E01, 1.638253E02
$$ 9.642025E01, 1.602074E02
$$ 9.662655E01, 1.566001E02
$$ 9.682683E01, 1.530037E02
$$ 9.702108E01, 1.494181E02
$$ 9.720928E01, 1.458434E02
$$ 9.739143E01, 1.422794E02
$$ 9.756751E01, 1.387261E02
$$ 9.773751E01, 1.351837E02
$$ 9.790142E01, 1.316521E02
$$ 9.805923E01, 1.281314E02
$$ 9.821093E01, 1.246213E02
$$ 9.835651E01, 1.211222E02
$$ 9.849597E01, 1.176337E02
$$ 9.862928E01, 1.141562E02
$$ 9.875646E01, 1.106893E02
$$ 9.887747E01, 1.072333E02
$$ 9.899233E01, 1.037881E02
$$ 9.910102E01, 1.003537E02
$$ 9.920354E01, 9.693015E01
$$ 9.929987E01, 9.351735E01
$$ 9.939002E01, 9.011535E01
$$ 9.947397E01, 8.672415E01
$$ 9.955173E01, 8.334375E01
$$ 9.962328E01, 7.997415E01
$$ 9.968863E01, 7.661535E01
$$ 9.974776E01, 7.326735E01
$$ 9.980069E01, 6.993015E01
$$ 9.984739E01, 6.660375E01
$$ 9.988787E01, 6.328815E01
$$ 9.992213E01, 5.998335E01
$$ 9.995016E01, 5.668935E01
$$ 9.997196E01, 5.340615E01
$$ 9.998754E01, 5.013375E01
$$ 9.999688E01, 4.687215E01
$$ 1.000000E02, 4.362135E01
$$ 1.000000E02, 4.038135E01
$$ 1.000000E02, 3.715215E01
$$ 1.000000E02, 3.393375E01
$$ 1.000000E02, 3.072615E01
$$ 1.000000E02, 2.752935E01
$$ 1.000000E02, 2.434335E01
$$ 1.000000E02, 2.116815E01
$$ 1.000000E02, 1.800375E01
$$ 1.000000E02, 1.485015E01
$$ 1.000000E02, 1.170735E01
$$ 1.000000E02, 8.575350E00
$$ 1.000000E02, 5.454150E00
$$ 1.000000E02, 2.343750E00
$$ 1.000000E02, 3.592442E02
$$ 1.000000E02, 3.561554E02
$$ 1.000000E02, 3.530773E02
$$ 1.000000E02, 3.500102E02
$$ 1.000000E02, 3.469537E02
$$ 1.000000E02, 3.439082E02
$$ 1.000000E02, 3.408734E02
$$ 1.000000E02, 3.378493E02
$$ 1.000000E02, 3.348362E02
$$ 1.000000E02, 3.318337E02
$$ 1.000000E02, 3.288422E02
$$ 1.000000E02, 3.258613E02
$$ 1.000000E02, 3.228914E02
$$ 1.000000E02, 3.199322E02
$$ 1.000000E02, 3.169838E02
$$ 1.000000E02, 3.140461E02
$$ 1.000000E02, 3.111193E02
$$ 1.000000E02, 3.082033E02
$$ 1.000000E02, 3.052981E02
$$ 1.000000E02, 3.024038E02
$$ 1.000000E02, 2.995201E02
$$ 1.000000E02, 2.966474E02
$$ 1.000000E02, 2.937853E02
$$ 1.000000E02, 2.909342E02
$$ 1.000000E02, 2.880937E02
$$ 1.000000E02, 2.852642E02
$$ 1.000000E02, 2.824453E02
$$ 1.000000E02, 2.796373E02
$$ 1.000000E02, 2.768402E02
$$ 1.000000E02, 2.740537E02
$$ 1.000000E02, 2.712782E02
$$ 1.000000E02, 2.685133E02
$$ 1.000000E02, 2.657594E02
$$ 1.000000E02, 2.630161E02
$$ 1.000000E02, 2.602838E02
$$ 1.000000E02, 2.575622E02
$$ 1.000000E02, 2.548513E02
$$ 1.000000E02, 2.521513E02
$$ 1.000000E02, 2.494621E02
$$ 1.000000E02, 2.467838E02
$$ 1.000000E02, 2.441161E02
$$ 1.000000E02, 2.414593E02
$$ 1.000000E02, 2.388133E02
$$ 1.000000E02, 2.361781E02
$$ 1.000000E02, 2.335537E02
$$ 1.000000E02, 2.309401E02
$$ 1.000000E02, 2.283374E02
$$ 1.000000E02, 2.257454E02
$$ 1.000000E02, 2.231642E02
$$ 1.000000E02, 2.205938E02
$$ 1.000000E02, 2.180342E02
$$ 1.000000E02, 2.154853E02
$$ 1.000000E02, 2.129473E02
$$ 1.000000E02, 2.104201E02
$$ 1.000000E02, 2.079038E02
$$ 1.000000E02, 2.053982E02
$$ 1.000000E02, 2.029034E02
$$ 1.000000E02, 2.004194E02
$$ 1.000000E02, 1.979462E02
$$ 1.000000E02, 1.954838E02
$$ 1.000000E02, 1.930322E02
$$ 1.000000E02, 1.905913E02
$$ 1.000000E02, 1.881613E02
$$ 1.000000E02, 1.857421E02
$$ 1.000000E02, 1.833337E02
$$ 1.000000E02, 1.809362E02
$$ 1.000000E02, 1.785494E02
$$ 1.000000E02, 1.761733E02
$$ 1.000000E02, 1.738082E02
$$ 1.000000E02, 1.714538E02
$$ 1.000000E02, 1.691101E02
$$ 1.000000E02, 1.667773E02
$$ 1.000000E02, 1.644553E02
$$ 1.000000E02, 1.621441E02
$$ 1.000000E02, 1.598437E02
$$ 1.000000E02, 1.575542E02
$$ 1.000000E02, 1.552753E02
$$ 1.000000E02, 1.530073E02
$$ 1.000000E02, 1.507502E02
$$ 1.000000E02, 1.485038E02
$$ 1.000000E02, 1.462681E02
$$ 1.000000E02, 1.440433E02
$$ 1.000000E02, 1.418293E02
$$ 1.000000E02, 1.396261E02
$$ 1.000000E02, 1.374338E02
$$ 1.000000E02, 1.352521E02
$$ 1.000000E02, 1.330814E02
$$ 1.000000E02, 1.309214E02
$$ 1.000000E02, 1.287722E02
$$ 1.000000E02, 1.266337E02
$$ 1.000000E02, 1.245061E02
$$ 1.000000E02, 1.223893E02
$$ 1.000000E02, 1.202833E02
$$ 1.000000E02, 1.181881E02
$$ 1.000000E02, 1.161037E02
$$ 1.000000E02, 1.140301E02
$$ 1.000000E02, 1.119673E02
$$ 1.000000E02, 1.099154E02
$$ 1.000000E02, 1.078741E02
$$ 1.000000E02, 1.058438E02
$$ 1.000000E02, 1.038241E02
$$ 1.000000E02, 1.018153E02
$$ 1.000000E02, 9.981735E01
$$ 1.000000E02, 9.783015E01
$$ 1.000000E02, 9.585375E01
$$ 1.000000E02, 9.388815E01
$$ 1.000000E02, 9.193335E01
$$ 1.000000E02, 8.998935E01
$$ 1.000000E02, 8.805615E01
$$ 1.000000E02, 8.613375E01
$$ 1.000000E02, 8.422215E01
$$ 1.000000E02, 8.232135E01
$$ 1.000000E02, 8.043135E01
$$ 1.000000E02, 7.855215E01
$$ 1.000000E02, 7.668375E01
$$ 1.000000E02, 7.482615E01
$$ 1.000000E02, 7.297935E01
$$ 1.000000E02, 7.114335E01
$$ 1.000000E02, 6.931815E01
$$ 1.000000E02, 6.750375E01
$$ 1.000000E02, 6.570015E01
$$ 1.000000E02, 6.390735E01
$$ 1.000000E02, 6.212535E01
$$ 1.000000E02, 6.035415E01
$$ 1.000000E02, 5.859375E01
$$ 1.000000E02, 5.684415E01
$$ 1.000000E02, 5.510535E01
$$ 1.000000E02, 5.337735E01
$$ 1.000000E02, 5.166015E01
$$ 1.000000E02, 4.995375E01
$$ 1.000000E02, 4.825815E01
$$ 1.000000E02, 4.657335E01
$$ 1.000000E02, 4.489935E01
$$ 1.000000E02, 4.323615E01
$$ 1.000000E02, 4.158375E01
$$ 1.000000E02, 3.994215E01
$$ 1.000000E02, 3.831135E01
$$ 1.000000E02, 3.669135E01
$$ 1.000000E02, 3.508215E01
$$ 1.000000E02, 3.348375E01
$$ 1.000000E02, 3.189615E01
$$ 1.000000E02, 3.031935E01
$$ 1.000000E02, 2.875335E01
$$ 1.000000E02, 2.719815E01
$$ 1.000000E02, 2.565375E01
$$ 1.000000E02, 2.412015E01
$$ 1.000000E02, 2.259735E01
$$ 1.000000E02, 2.108535E01
$$ 1.000000E02, 1.958415E01
$$ 1.000000E02, 1.809375E01
$$ 1.000000E02, 1.661415E01
$$ 1.000000E02, 1.514535E01
$$ 1.000000E02, 1.368735E01
$$ 1.000000E02, 1.224015E01
$$ 1.000000E02, 1.080375E01
$$ 1.000000E02, 9.378150E00
$$ 1.000000E02, 7.963350E00
$$ 1.000000E02, 6.559350E00
$$ 1.000000E02, 5.166150E00
$$ 1.000000E02, 3.783750E00
$$ 1.000000E02, 2.412150E00
$$ 1.000000E02, 1.051350E00
$$ 1.000000E02, 3.597014E02
$$ 1.000000E02, 3.583622E02
$$ 1.000000E02, 3.570338E02
$$ 1.000000E02, 3.557161E02
$$ 1.000000E02, 3.544094E02
$$ 1.000000E02, 3.531133E02
$$ 1.000000E02, 3.518282E02
$$ 1.000000E02, 3.505538E02
$$ 1.000000E02, 3.492902E02
$$ 1.000000E02, 3.480373E02
$$ 1.000000E02, 3.467954E02
$$ 1.000000E02, 3.455642E02
$$ 1.000000E02, 3.443438E02
$$ 1.000000E02, 3.431342E02
$$ 1.000000E02, 3.419353E02
$$ 1.000000E02, 3.407474E02
$$ 1.000000E02, 3.395702E02
$$ 1.000000E02, 3.384038E02
$$ 1.000000E02, 3.372482E02
$$ 1.000000E02, 3.361034E02
$$ 1.000000E02, 3.349693E02
$$ 1.000000E02, 3.338461E02
$$ 1.000000E02, 3.327338E02
$$ 1.000000E02, 3.316322E02
$$ 1.000000E02, 3.305413E02
$$ 1.000000E02, 3.294614E02
$$ 1.000000E02, 3.283922E02
$$ 1.000000E02, 3.273338E02
$$ 1.000000E02, 3.262862E02
$$ 1.000000E02, 3.252494E02
$$ 1.000000E02, 3.242234E02
$$ 1.000000E02, 3.232082E02
$$ 1.000000E02, 3.222038E02
$$ 1.000000E02, 3.212102E02
$$ 1.000000E02, 3.202274E02
$$ 1.000000E02, 3.192554E02
$$ 1.000000E02, 3.182942E02
$$ 1.000000E02, 3.173438E02
$$ 1.000000E02, 3.164042E02
$$ 1.000000E02, 3.154754E02
$$ 1.000000E02, 3.145574E02
$$ 1.000000E02, 3.136502E02
$$ 1.000000E02, 3.127537E02
$$ 1.000000E02, 3.118682E02
$$ 1.000000E02, 3.109933E02
$$ 1.000000E02, 3.101294E02
$$ 1.000000E02, 3.092762E02
$$ 1.000000E02, 3.084338E02
$$ 1.000000E02, 3.076022E02
$$ 1.000000E02, 3.067814E02
$$ 1.000000E02, 3.059714E02
$$ 1.000000E02, 3.051722E02
$$ 1.000000E02, 3.043838E02
$$ 1.000000E02, 3.036062E02
$$ 1.000000E02, 3.028393E02
$$ 1.000000E02, 3.020834E02
$$ 1.000000E02, 3.013382E02
$$ 1.000000E02, 3.006038E02
$$ 1.000000E02, 2.998802E02
$$ 1.000000E02, 2.991674E02
$$ 1.000000E02, 2.984654E02
$$ 1.000000E02, 2.977742E02
$$ 1.000000E02, 2.970938E02
$$ 1.000000E02, 2.964242E02
$$ 1.000000E02, 2.957654E02
$$ 1.000000E02, 2.951174E02
$$ 1.000000E02, 2.944802E02
$$ 1.000000E02, 2.938538E02
$$ 1.000000E02, 2.932382E02
$$ 1.000000E02, 2.926334E02
$$ 1.000000E02, 2.920394E02
$$ 1.000000E02, 2.914562E02
$$ 1.000000E02, 2.908837E02
$$ 1.000000E02, 2.903221E02
$$ 1.000000E02, 2.897714E02
$$ 1.000000E02, 2.892314E02
$$ 1.000000E02, 2.887022E02
$$ 1.000000E02, 2.881838E02
$$ 1.000000E02, 2.876762E02
$$ 1.000000E02, 2.871794E02
$$ 1.000000E02, 2.866934E02
$$ 1.000000E02, 2.862182E02
$$ 1.000000E02, 2.857537E02
$$ 1.000000E02, 2.853002E02
$$ 1.000000E02, 2.848574E02
$$ 1.000000E02, 2.844254E02
$$ 1.000000E02, 2.840042E02
$$ 1.000000E02, 2.835938E02
$$ 1.000000E02, 2.831942E02
$$ 1.000000E02, 2.828054E02
$$ 1.000000E02, 2.824274E02
$$ 1.000000E02, 2.820602E02
$$ 1.000000E02, 2.817038E02
$$ 1.000000E02, 2.813582E02
$$ 1.000000E02, 2.810234E02
$$ 1.000000E02, 2.806994E02
$$ 1.000000E02, 2.803862E02
$$ 1.000000E02, 2.800838E02
$$ 1.000000E02, 2.797922E02
$$ 1.000000E02, 2.795114E02
$$ 1.000000E02, 2.792414E02
$$ 1.000000E02, 2.789822E02
$$ 1.000000E02, 2.787338E02
$$ 1.000000E02, 2.784962E02
$$ 1.000000E02, 2.782694E02
$$ 1.000000E02, 2.780534E02
$$ 1.000000E02, 2.778482E02
$$ 1.000000E02, 2.776538E02
$$ 1.000000E02, 2.774702E02
$$ 1.000000E02, 2.772974E02
$$ 1.000000E02, 2.771354E02
$$ 1.000000E02, 2.769842E02
$$ 1.000000E02, 2.768438E02
$$ 1.000000E02, 2.767142E02
$$ 1.000000E02, 2.765954E02
$$ 1.000000E02, 2.764874E02
$$ 1.000000E02, 2.763902E02
$$ 1.000000E02, 2.763038E02
$$ 1.000000E02, 2.762282E02
$$ 1.000000E02, 2.761634E02
$$ 1.000000E02, 2.761094E02
$$ 1.000000E02, 2.760662E02
$$ 1.000000E02, 2.760338E02
$$ 1.000000E02, 2.760122E02
$$ 1.000000E02, 2.760014E02
$$ 1.000000E02, 2.760014E02
$$ 1.000000E02, 2.760122E02
$$ 1.000000E02, 2.760338E02
$$ 1.000000E02, 2.760662E02
$$ 1.000000E02, 2.761094E02
$$ 1.000000E02, 2.761634E02
$$ 1.000000E02, 2.762282E02
$$ 1.000000E02, 2.763038E02
$$ 1.000000E02, 2.763902E02
$$ 1.000000E02, 2.764874E02
$$ 1.000000E02, 2.765954E02
$$ 1.000000E02, 2.767142E02
$$ 1.000000E02, 2.768438E02
$$ 1.000000E02, 2.769842E02
$$ 1.000000E02, 2.771354E02
$$ 1.000000E02, 2.772974E02
$$ 1.000000E02, 2.774702E02
$$ 1.000000E02, 2.776538E02
$$ 1.000000E02, 2.778482E02
$$ 1.000000E02, 2.780534E02
$$ 1.000000E02, 2.782694E02
$$ 1.000000E02, 2.784962E02
$$ 1.000000E02, 2.787338E02
$$ 1.000000E02, 2.789822E02
$$ 1.000000E02, 2.792414E02
$$ 1.000000E02, 2.795114E02
$$ 1.000000E02, 2.797922E02
$$ 1.000000E02, 2.800838E02
$$ 1.000000E02, 2.803862E02
$$ 1.000000E02, 2.806994E02
$$ 1.000000E02, 2.810234E02
$$ 1.000000E02, 2.813582E02
$$ 1.000000E02, 2.817038E02
$$ 1.000000E02, 2.820602E02
$$ 1.000000E02, 2.824274E02
$$ 1.000000E02, 2.828054E02
$$ 1.000000E02, 2.831942E02
$$ 1.000000E02, 2.835938E02
$$ 1.000000E02, 2.840042E02
$$ 1.000000E02, 2.844254E02
$$ 1.000000E02, 2.848574E02
$$ 1.000000E02, 2.853002E02
$$ 1.000000E02, 2.857537E02
$$ 1.000000E02, 2.862182E02
$$ 1.000000E02, 2.866934E02
$$ 1.000000E02, 2.871794E02
$$ 1.000000E02, 2.876762E02
$$ 1.000000E02, 2.881838E02
$$ 1.000000E02, 2.887022E02
$$ 1.000000E02, 2.892314E02
$$ 1.000000E02, 2.897714E02
$$ 1.000000E02, 2.903221E02
$$ 1.000000E02, 2.908837E02
$$ 1.000000E02, 2.914562E02
$$ 1.000000E02, 2.920394E02
$$ 1.000000E02, 2.926334E02
$$ 1.000000E02, 2.932382E02
$$ 1.000000E02, 2.938538E02
$$ 1.000000E02, 2.944802E02
$$ 1.000000E02, 2.951174E02
$$ 1.000000E02, 2.957654E02
$$ 1.000000E02, 2.964242E02
$$ 1.000000E02, 2.970938E02
$$ 1.000000E02, 2.977742E02
$$ 1.000000E02, 2.984654E02
$$ 1.000000E02, 2.991674E02
$$ 1.000000E02, 2.998802E02
$$ 1.000000E02, 3.006038E02
$$ 1.000000E02, 3.013382E02
$$ 1.000000E02, 3.020834E02
$$ 1.000000E02, 3.028393E02
$$ 1.000000E02, 3.036062E02
$$ 1.000000E02, 3.043838E02
$$ 1.000000E02, 3.051722E02
$$ 1.000000E02, 3.059714E02
$$ 1.000000E02, 3.067814E02
$$ 1.000000E02, 3.076022E02
$$ 1.000000E02, 3.084338E02
$$ 1.000000E02, 3.092762E02
$$ 1.000000E02, 3.101294E02
$$ 1.000000E02, 3.109933E02
$$ 1.000000E02, 3.118682E02
$$ 1.000000E02, 3.127537E02
$$ 1.000000E02, 3.136502E02
$$ 1.000000E02, 3.145574E02
$$ 1.000000E02, 3.154754E02
$$ 1.000000E02, 3.164042E02
$$ 1.000000E02, 3.173438E02
$$ 1.000000E02, 3.182942E02
$$ 1.000000E02, 3.192554E02
$$ 1.000000E02, 3.202274E02
$$ 1.000000E02, 3.212102E02
$$ 1.000000E02, 3.222038E02
$$ 1.000000E02, 3.232082E02
$$ 1.000000E02, 3.242234E02
$$ 1.000000E02, 3.252494E02
$$ 1.000000E02, 3.262862E02
$$ 1.000000E02, 3.273338E02
$$ 1.000000E02, 3.283922E02
$$ 1.000000E02, 3.294614E02
$$ 1.000000E02, 3.305413E02
$$ 1.000000E02, 3.316322E02
$$ 1.000000E02, 3.327338E02
$$ 1.000000E02, 3.338461E02
$$ 1.000000E02, 3.349693E02
$$ 1.000000E02, 3.361034E02
$$ 1.000000E02, 3.372482E02
$$ 1.000000E02, 3.384038E02
$$ 1.000000E02, 3.395702E02
$$ 1.000000E02, 3.407474E02
$$ 1.000000E02, 3.419353E02
$$ 1.000000E02, 3.431342E02
$$ 1.000000E02, 3.443438E02
$$ 1.000000E02, 3.455642E02
$$ 1.000000E02, 3.467954E02
$$ 1.000000E02, 3.480373E02
$$ 1.000000E02, 3.492902E02
$$ 1.000000E02, 3.505538E02
$$ 1.000000E02, 3.518282E02
$$ 1.000000E02, 3.531133E02
$$ 1.000000E02, 3.544094E02
$$ 1.000000E02, 3.557161E02
$$ 1.000000E02, 3.570338E02
$$ 1.000000E02, 3.583622E02
$$ 1.000000E02, 3.597014E02
$$ 1.000000E02, 1.051350E00
$$ 1.000000E02, 2.412150E00
$$ 1.000000E02, 3.783750E00
$$ 1.000000E02, 5.166150E00
$$ 1.000000E02, 6.559350E00
$$ 1.000000E02, 7.963350E00
$$ 1.000000E02, 9.378150E00
$$ 1.000000E02, 1.080375E01
$$ 1.000000E02, 1.224015E01
$$ 1.000000E02, 1.368735E01
$$ 1.000000E02, 1.514535E01
$$ 1.000000E02, 1.661415E01
$$ 1.000000E02, 1.809375E01
$$ 1.000000E02, 1.958415E01
$$ 1.000000E02, 2.108535E01
$$ 1.000000E02, 2.259735E01
$$ 1.000000E02, 2.412015E01
$$ 1.000000E02, 2.565375E01
$$ 1.000000E02, 2.719815E01
$$ 1.000000E02, 2.875335E01
$$ 1.000000E02, 3.031935E01
$$ 1.000000E02, 3.189615E01
$$ 1.000000E02, 3.348375E01
$$ 1.000000E02, 3.508215E01
$$ 1.000000E02, 3.669135E01
$$ 1.000000E02, 3.831135E01
$$ 1.000000E02, 3.994215E01
$$ 1.000000E02, 4.158375E01
$$ 1.000000E02, 4.323615E01
$$ 1.000000E02, 4.489935E01
$$ 1.000000E02, 4.657335E01
$$ 1.000000E02, 4.825815E01
$$ 1.000000E02, 4.995375E01
$$ 1.000000E02, 5.166015E01
$$ 1.000000E02, 5.337735E01
$$ 1.000000E02, 5.510535E01
$$ 1.000000E02, 5.684415E01
$$ 1.000000E02, 5.859375E01
$$ 1.000000E02, 6.035415E01
$$ 1.000000E02, 6.212535E01
$$ 1.000000E02, 6.390735E01
$$ 1.000000E02, 6.570015E01
$$ 1.000000E02, 6.750375E01
$$ 1.000000E02, 6.931815E01
$$ 1.000000E02, 7.114335E01
$$ 1.000000E02, 7.297935E01
$$ 1.000000E02, 7.482615E01
$$ 1.000000E02, 7.668375E01
$$ 1.000000E02, 7.855215E01
$$ 1.000000E02, 8.043135E01
$$ 1.000000E02, 8.232135E01
$$ 1.000000E02, 8.422215E01
$$ 1.000000E02, 8.613375E01
$$ 1.000000E02, 8.805615E01
$$ 1.000000E02, 8.998935E01
$$ 1.000000E02, 9.193335E01
$$ 1.000000E02, 9.388815E01
$$ 1.000000E02, 9.585375E01
$$ 1.000000E02, 9.783015E01
$$ 1.000000E02, 9.981735E01
$$ 1.000000E02, 1.018153E02
$$ 1.000000E02, 1.038241E02
$$ 1.000000E02, 1.058438E02
$$ 1.000000E02, 1.078741E02
$$ 1.000000E02, 1.099154E02
$$ 1.000000E02, 1.119673E02
$$ 1.000000E02, 1.140301E02
$$ 1.000000E02, 1.161037E02
$$ 1.000000E02, 1.181881E02
$$ 1.000000E02, 1.202833E02
$$ 1.000000E02, 1.223893E02
$$ 1.000000E02, 1.245061E02
$$ 1.000000E02, 1.266337E02
$$ 1.000000E02, 1.287722E02
$$ 1.000000E02, 1.309214E02
$$ 1.000000E02, 1.330814E02
$$ 1.000000E02, 1.352521E02
$$ 1.000000E02, 1.374338E02
$$ 1.000000E02, 1.396261E02
$$ 1.000000E02, 1.418293E02
$$ 1.000000E02, 1.440433E02
$$ 1.000000E02, 1.462681E02
$$ 1.000000E02, 1.485038E02
$$ 1.000000E02, 1.507502E02
$$ 1.000000E02, 1.530073E02
$$ 1.000000E02, 1.552753E02
$$ 1.000000E02, 1.575542E02
$$ 1.000000E02, 1.598437E02
$$ 1.000000E02, 1.621441E02
$$ 1.000000E02, 1.644553E02
$$ 1.000000E02, 1.667773E02
$$ 1.000000E02, 1.691101E02
$$ 1.000000E02, 1.714538E02
$$ 1.000000E02, 1.738082E02
$$ 1.000000E02, 1.761733E02
$$ 1.000000E02, 1.785494E02
$$ 1.000000E02, 1.809362E02
$$ 1.000000E02, 1.833337E02
$$ 1.000000E02, 1.857421E02
$$ 1.000000E02, 1.881613E02
$$ 1.000000E02, 1.905913E02
$$ 1.000000E02, 1.930322E02
$$ 1.000000E02, 1.954838E02
$$ 1.000000E02, 1.979462E02
$$ 1.000000E02, 2.004194E02
$$ 1.000000E02, 2.029034E02
$$ 1.000000E02, 2.053982E02
$$ 1.000000E02, 2.079038E02
$$ 1.000000E02, 2.104201E02
$$ 1.000000E02, 2.129473E02
$$ 1.000000E02, 2.154853E02
$$ 1.000000E02, 2.180342E02
$$ 1.000000E02, 2.205938E02
$$ 1.000000E02, 2.231642E02
$$ 1.000000E02, 2.257454E02
$$ 1.000000E02, 2.283374E02
$$ 1.000000E02, 2.309401E02
$$ 1.000000E02, 2.335537E02
$$ 1.000000E02, 2.361781E02
$$ 1.000000E02, 2.388133E02
$$ 1.000000E02, 2.414593E02
$$ 1.000000E02, 2.441161E02
$$ 1.000000E02, 2.467838E02
$$ 1.000000E02, 2.494621E02
$$ 1.000000E02, 2.521513E02
$$ 1.000000E02, 2.548513E02
$$ 1.000000E02, 2.575622E02
$$ 1.000000E02, 2.602838E02
$$ 1.000000E02, 2.630161E02
$$ 1.000000E02, 2.657594E02
$$ 1.000000E02, 2.685133E02
$$ 1.000000E02, 2.712782E02
$$ 1.000000E02, 2.740537E02
$$ 1.000000E02, 2.768402E02
$$ 1.000000E02, 2.796373E02
$$ 1.000000E02, 2.824453E02
$$ 1.000000E02, 2.852642E02
$$ 1.000000E02, 2.880937E02
$$ 1.000000E02, 2.909342E02
$$ 1.000000E02, 2.937853E02
$$ 1.000000E02, 2.966474E02
$$ 1.000000E02, 2.995201E02
$$ 1.000000E02, 3.024038E02
$$ 1.000000E02, 3.052981E02
$$ 1.000000E02, 3.082033E02
$$ 1.000000E02, 3.111193E02
$$ 1.000000E02, 3.140461E02
$$ 1.000000E02, 3.169838E02
$$ 1.000000E02, 3.199322E02
$$ 1.000000E02, 3.228914E02
$$ 1.000000E02, 3.258613E02
$$ 1.000000E02, 3.288422E02
$$ 1.000000E02, 3.318337E02
$$ 1.000000E02, 3.348362E02
$$ 1.000000E02, 3.378493E02
$$ 1.000000E02, 3.408734E02
$$ 1.000000E02, 3.439082E02
$$ 1.000000E02, 3.469537E02
$$ 1.000000E02, 3.500102E02
$$ 1.000000E02, 3.530773E02
$$ 1.000000E02, 3.561554E02
$$ 1.000000E02, 3.592442E02
$$ 1.000000E02, 2.343750E00
$$ 1.000000E02, 5.454150E00
$$ 1.000000E02, 8.575350E00
$$ 1.000000E02, 1.170735E01
$$ 1.000000E02, 1.485015E01
$$ 1.000000E02, 1.800375E01
$$ 1.000000E02, 2.116815E01
$$ 1.000000E02, 2.434335E01
$$ 1.000000E02, 2.752935E01
$$ 1.000000E02, 3.072615E01
$$ 1.000000E02, 3.393375E01
$$ 1.000000E02, 3.715215E01
$$ 1.000000E02, 4.038135E01
$$ 1.000000E02, 4.362135E01
$$ 9.999688E01, 4.687215E01
$$ 9.998754E01, 5.013375E01
$$ 9.997196E01, 5.340615E01
$$ 9.995016E01, 5.668935E01
$$ 9.992213E01, 5.998335E01
$$ 9.988787E01, 6.328815E01
$$ 9.984739E01, 6.660375E01
$$ 9.980069E01, 6.993015E01
$$ 9.974776E01, 7.326735E01
$$ 9.968863E01, 7.661535E01
$$ 9.962328E01, 7.997415E01
$$ 9.955173E01, 8.334375E01
$$ 9.947397E01, 8.672415E01
$$ 9.939002E01, 9.011535E01
$$ 9.929987E01, 9.351735E01
$$ 9.920354E01, 9.693015E01
$$ 9.910102E01, 1.003537E02
$$ 9.899233E01, 1.037881E02
$$ 9.887747E01, 1.072333E02
$$ 9.875646E01, 1.106893E02
$$ 9.862928E01, 1.141562E02
$$ 9.849597E01, 1.176337E02
$$ 9.835651E01, 1.211222E02
$$ 9.821093E01, 1.246213E02
$$ 9.805923E01, 1.281314E02
$$ 9.790142E01, 1.316521E02
$$ 9.773751E01, 1.351837E02
$$ 9.756751E01, 1.387261E02
$$ 9.739143E01, 1.422794E02
$$ 9.720928E01, 1.458434E02
$$ 9.702108E01, 1.494181E02
$$ 9.682683E01, 1.530037E02
$$ 9.662655E01, 1.566001E02
$$ 9.642025E01, 1.602074E02
$$ 9.620794E01, 1.638253E02
$$ 9.598963E01, 1.674542E02
$$ 9.576535E01, 1.710937E02
$$ 9.553510E01, 1.747442E02
$$ 9.529889E01, 1.784053E02
$$ 9.505675E01, 1.820774E02
$$ 9.480868E01, 1.857602E02
$$ 9.455471E01, 1.894537E02
$$ 9.429485E01, 1.931581E02
$$ 9.402911E01, 1.968733E02
$$ 9.375751E01, 2.005993E02
$$ 9.348008E01, 2.043361E02
$$ 9.319681E01, 2.080838E02
$$ 9.290774E01, 2.118421E02
$$ 9.261288E01, 2.156114E02
$$ 9.231226E01, 2.193914E02
$$ 9.200588E01, 2.231821E02
$$ 9.169376E01, 2.269838E02
$$ 9.137594E01, 2.307962E02
$$ 9.105242E01, 2.346193E02
$$ 9.072323E01, 2.384533E02
$$ 9.038838E01, 2.422981E02
$$ 9.004790E01, 2.461537E02
$$ 8.970182E01, 2.500202E02
$$ 8.935014E01, 2.538973E02
$$ 8.899290E01, 2.577854E02
$$ 8.863011E01, 2.616842E02
$$ 8.826180E01, 2.655938E02
$$ 8.788799E01, 2.695142E02
$$ 8.750870E01, 2.734453E02
$$ 8.712396E01, 2.773873E02
$$ 8.673380E01, 2.813401E02
$$ 8.633823E01, 2.853038E02
$$ 8.593728E01, 2.892781E02
$$ 8.553097E01, 2.932634E02
$$ 8.511934E01, 2.972593E02
$$ 8.470240E01, 3.012662E02
$$ 8.428019E01, 3.052837E02
$$ 8.385272E01, 3.093122E02
$$ 8.342003E01, 3.133514E02
$$ 8.298215E01, 3.174013E02
$$ 8.253909E01, 3.214621E02
$$ 8.209089E01, 3.255337E02
$$ 8.163757E01, 3.296161E02
$$ 8.117917E01, 3.337094E02
$$ 8.071571E01, 3.378133E02
$$ 8.024722E01, 3.419282E02
$$ 7.977373E01, 3.460537E02
$$ 7.929527E01, 3.501902E02
$$ 7.881187E01, 3.543373E02
$$ 7.832356E01, 3.584954E02
$$ 7.783037E01, 2.664150E00
$$ 7.733233E01, 6.843750E00
$$ 7.682948E01, 1.103415E01
$$ 7.632183E01, 1.523535E01
$$ 7.580943E01, 1.944735E01
$$ 7.529231E01, 2.367015E01
$$ 7.477049E01, 2.790375E01
$$ 7.424402E01, 3.214815E01
$$ 7.371292E01, 3.640335E01
$$ 7.317723E01, 4.066935E01
$$ 7.263698E01, 4.494615E01
$$ 7.209220E01, 4.923375E01
$$ 7.154293E01, 5.353215E01
$$ 7.098920E01, 5.784135E01
$$ 7.043105E01, 6.216135E01
$$ 6.986851E01, 6.649215E01
$$ 6.930162E01, 7.083375E01
$$ 6.873041E01, 7.518615E01
$$ 6.815492E01, 7.954935E01
$$ 6.757518E01, 8.392335E01
$$ 6.699124E01, 8.830815E01
$$ 6.640311E01, 9.270375E01
$$ 6.581085E01, 9.711015E01
$$ 6.521449E01, 1.015274E02
$$ 6.461407E01, 1.059553E02
$$ 6.400962E01, 1.103941E02
$$ 6.340118E01, 1.148438E02
$$ 6.278880E01, 1.193041E02
$$ 6.217250E01, 1.237754E02
$$ 6.155232E01, 1.282573E02
$$ 6.092832E01, 1.327501E02
$$ 6.030051E01, 1.372537E02
$$ 5.966895E01, 1.417682E02
$$ 5.903367E01, 1.462934E02
$$ 5.839471E01, 1.508293E02
$$ 5.775212E01, 1.553761E02
$$ 5.710592E01, 1.599337E02
$$ 5.645617E01, 1.645021E02
$$ 5.580290E01, 1.690813E02
$$ 5.514615E01, 1.736713E02
$$ 5.448597E01, 1.782721E02
$$ 5.382239E01, 1.828837E02
$$ 5.315546E01, 1.875062E02
$$ 5.248522E01, 1.921393E02
$$ 5.181170E01, 1.967834E02
$$ 5.113496E01, 2.014381E02
$$ 5.045503E01, 2.061038E02
$$ 4.977196E01, 2.107801E02
$$ 4.908579E01, 2.154674E02
$$ 4.839656E01, 2.201653E02
$$ 4.770431E01, 2.248741E02
$$ 4.700910E01, 2.295937E02
$$ 4.631095E01, 2.343241E02
$$ 4.560992E01, 2.390654E02
$$ 4.490604E01, 2.438174E02
$$ 4.419937E01, 2.485802E02
$$ 4.348994E01, 2.533537E02
$$ 4.277781E01, 2.581382E02
$$ 4.206301E01, 2.629333E02
$$ 4.134558E01, 2.677394E02
$$ 4.062559E01, 2.725561E02
$$ 3.990306E01, 2.773837E02
$$ 3.917804E01, 2.822221E02
$$ 3.845058E01, 2.870713E02
$$ 3.772073E01, 2.919314E02
$$ 3.698853E01, 2.968021E02
$$ 3.625402E01, 3.016837E02
$$ 3.551726E01, 3.065761E02
$$ 3.477828E01, 3.114793E02
$$ 3.403713E01, 3.163933E02
$$ 3.329386E01, 3.213182E02
$$ 3.254852E01, 3.262537E02
$$ 3.180115E01, 3.312001E02
$$ 3.105180E01, 3.361573E02
$$ 3.030052E01, 3.411253E02
$$ 2.954734E01, 3.461042E02
$$ 2.879233E01, 3.510937E02
$$ 2.803552E01, 3.560941E02
$$ 2.727697E01, 1.105350E00
$$ 2.651671E01, 6.127350E00
$$ 2.575481E01, 1.116015E01
$$ 2.499130E01, 1.620375E01
$$ 2.422623E01, 2.125815E01
$$ 2.345965E01, 2.632335E01
$$ 2.269161E01, 3.139935E01
$$ 2.192216E01, 3.648615E01
$$ 2.115134E01, 4.158375E01
$$ 2.037920E01, 4.669215E01
$$ 1.960579E01, 5.181135E01
$$ 1.883117E01, 5.694135E01
$$ 1.805537E01, 6.208215E01
$$ 1.727844E01, 6.723375E01
$$ 1.650044E01, 7.239615E01
$$ 1.572140E01, 7.756935E01
$$ 1.494139E01, 8.275335E01
$$ 1.416045E01, 8.794815E01
$$ 1.337863E01, 9.315375E01
$$ 1.259597E01, 9.837015E01
$$ 1.181253E01, 1.035973E02
$$ 1.102835E01, 1.088353E02
$$ 1.024348E01, 1.140841E02
$$ 9.457981E00, 1.193437E02
$$ 8.671888E00, 1.246142E02
$$ 7.885255E00, 1.298954E02
$$ 7.098130E00, 1.351873E02
$$ 6.310563E00, 1.404901E02
$$ 5.522603E00, 1.458037E02
$$ 4.734299E00, 1.511282E02
$$ 3.945700E00, 1.564633E02
$$ 3.156855E00, 1.618093E02
$$ 2.367813E00, 1.671662E02
$$ 1.578624E00, 1.725338E02
$$ 7.893367E-01, 1.779122E02
$$ 0.000000E00, 1.833013E02
$$ 0.000000E00, 9.330067E01
$$ 3.936823E-01, 8.790607E01
$$ 7.873584E-01, 8.251687E01
$$ 1.181022E00, 7.713307E01
$$ 1.574668E00, 7.175467E01
$$ 1.968289E00, 6.638167E01
$$ 2.361880E00, 6.101408E01
$$ 2.755434E00, 5.565187E01
$$ 3.148946E00, 5.029508E01
$$ 3.542408E00, 4.494368E01
$$ 3.935816E00, 3.959767E01
$$ 4.329163E00, 3.425707E01
$$ 4.722442E00, 2.892187E01
$$ 5.115649E00, 2.359208E01
$$ 5.508776E00, 1.826768E01
$$ 5.901818E00, 1.294867E01
$$ 6.294768E00, 7.635075E00
$$ 6.687621E00, 2.326875E00
$$ 7.080370E00, 3.570241E02
$$ 7.473009E00, 3.517267E02
$$ 7.865533E00, 3.464347E02
$$ 8.257935E00, 3.411481E02
$$ 8.650208E00, 3.358669E02
$$ 9.042348E00, 3.305911E02
$$ 9.434347E00, 3.253207E02
$$ 9.826200E00, 3.200557E02
$$ 1.021790E01, 3.147961E02
$$ 1.060944E01, 3.095419E02
$$ 1.100082E01, 3.042931E02
$$ 1.139203E01, 2.990497E02
$$ 1.178306E01, 2.938117E02
$$ 1.217391E01, 2.885791E02
$$ 1.256457E01, 2.833519E02
$$ 1.295503E01, 2.781301E02
$$ 1.334530E01, 2.729137E02
$$ 1.373536E01, 2.677027E02
$$ 1.412520E01, 2.624971E02
$$ 1.451483E01, 2.572969E02
$$ 1.490423E01, 2.521021E02
$$ 1.529340E01, 2.469127E02
$$ 1.568233E01, 2.417287E02
$$ 1.607102E01, 2.365501E02
$$ 1.645946E01, 2.313769E02
$$ 1.684764E01, 2.262091E02
$$ 1.723557E01, 2.210467E02
$$ 1.762323E01, 2.158897E02
$$ 1.801061E01, 2.107381E02
$$ 1.839771E01, 2.055919E02
$$ 1.878453E01, 2.004511E02
$$ 1.917106E01, 1.953157E02
$$ 1.955729E01, 1.901857E02
$$ 1.994322E01, 1.850611E02
$$ 2.032884E01, 1.799419E02
$$ 2.071415E01, 1.748281E02
$$ 2.109913E01, 1.697197E02
$$ 2.148379E01, 1.646167E02
$$ 2.186811E01, 1.595191E02
$$ 2.225209E01, 1.544269E02
$$ 2.263573E01, 1.493401E02
$$ 2.301902E01, 1.442587E02
$$ 2.340195E01, 1.391827E02
$$ 2.378452E01, 1.341121E02
$$ 2.416672E01, 1.290469E02
$$ 2.454855E01, 1.239871E02
$$ 2.492999E01, 1.189327E02
$$ 2.531105E01, 1.138837E02
$$ 2.569172E01, 1.088401E02
$$ 2.607199E01, 1.038019E02
$$ 2.645185E01, 9.876907E01
$$ 2.683131E01, 9.374168E01
$$ 2.721035E01, 8.871967E01
$$ 2.758896E01, 8.370307E01
$$ 2.796715E01, 7.869187E01
$$ 2.834491E01, 7.368607E01
$$ 2.872223E01, 6.868567E01
$$ 2.909910E01, 6.369067E01
$$ 2.947552E01, 5.870107E01
$$ 2.985148E01, 5.371687E01
$$ 3.022698E01, 4.873808E01
$$ 3.060201E01, 4.376467E01
$$ 3.097657E01, 3.879668E01
$$ 3.135065E01, 3.383407E01
$$ 3.172424E01, 2.887687E01
$$ 3.209734E01, 2.392508E01
$$ 3.246995E01, 1.897867E01
$$ 3.284205E01, 1.403768E01
$$ 3.321364E01, 9.102075E00
$$ 3.358471E01, 4.171875E00
$$ 3.395527E01, 3.592471E02
$$ 3.432530E01, 3.543277E02
$$ 3.469480E01, 3.494137E02
$$ 3.506376E01, 3.445051E02
$$ 3.543217E01, 3.396019E02
$$ 3.580004E01, 3.347041E02
$$ 3.616735E01, 3.298117E02
$$ 3.653410E01, 3.249247E02
$$ 3.690029E01, 3.200431E02
$$ 3.726590E01, 3.151669E02
$$ 3.763094E01, 3.102961E02
$$ 3.799539E01, 3.054307E02
$$ 3.835925E01, 3.005707E02
$$ 3.872252E01, 2.957161E02
$$ 3.908519E01, 2.908669E02
$$ 3.944726E01, 2.860231E02
$$ 3.980871E01, 2.811847E02
$$ 4.016954E01, 2.763517E02
$$ 4.052975E01, 2.715241E02
$$ 4.088934E01, 2.667019E02
$$ 4.124829E01, 2.618851E02
$$ 4.160660E01, 2.570737E02
$$ 4.196427E01, 2.522677E02
$$ 4.232128E01, 2.474671E02
$$ 4.267764E01, 2.426719E02
$$ 4.303334E01, 2.378821E02
$$ 4.338837E01, 2.330977E02
$$ 4.374273E01, 2.283187E02
$$ 4.409641E01, 2.235451E02
$$ 4.444941E01, 2.187769E02
$$ 4.480172E01, 2.140141E02
$$ 4.515334E01, 2.092567E02
$$ 4.550425E01, 2.045047E02
$$ 4.585446E01, 1.997581E02
$$ 4.620396E01, 1.950169E02
$$ 4.655274E01, 1.902811E02
$$ 4.690080E01, 1.855507E02
$$ 4.724814E01, 1.808257E02
$$ 4.759474E01, 1.761061E02
$$ 4.794060E01, 1.713919E02
$$ 4.828573E01, 1.666831E02
$$ 4.863010E01, 1.619797E02
$$ 4.897372E01, 1.572817E02
$$ 4.931658E01, 1.525891E02
$$ 4.965867E01, 1.479019E02
$$ 5.000000E01, 1.432201E02
$$ 5.034055E01, 1.385437E02
$$ 5.068032E01, 1.338727E02
$$ 5.101931E01, 1.292071E02
$$ 5.135750E01, 1.245469E02
$$ 5.169490E01, 1.198921E02
$$ 5.203150E01, 1.152427E02
$$ 5.236729E01, 1.105987E02
$$ 5.270227E01, 1.059601E02
$$ 5.303643E01, 1.013269E02
$$ 5.336978E01, 9.669908E01
$$ 5.370229E01, 9.207667E01
$$ 5.403397E01, 8.745968E01
$$ 5.436481E01, 8.284807E01
$$ 5.469482E01, 7.824187E01
$$ 5.502397E01, 7.364107E01
$$ 5.535227E01, 6.904567E01
$$ 5.567971E01, 6.445567E01
$$ 5.600629E01, 5.987107E01
$$ 5.633201E01, 5.529187E01
$$ 5.665684E01, 5.071807E01
$$ 5.698081E01, 4.614968E01
$$ 5.730388E01, 4.158668E01
$$ 5.762607E01, 3.702907E01
$$ 5.794737E01, 3.247687E01
$$ 5.826777E01, 2.793007E01
$$ 5.858726E01, 2.338867E01
$$ 5.890585E01, 1.885268E01
$$ 5.922353E01, 1.432207E01
$$ 5.954028E01, 9.796875E00
$$ 5.985612E01, 5.277075E00
$$ 6.017102E01, 7.626750E-01
$$ 6.048499E01, 3.562537E02
$$ 6.079803E01, 3.517501E02
$$ 6.111012E01, 3.472519E02
$$ 6.142127E01, 3.427591E02
$$ 6.173147E01, 3.382717E02
$$ 6.204070E01, 3.337897E02
$$ 6.234898E01, 3.293131E02
$$ 6.265629E01, 3.248419E02
$$ 6.296263E01, 3.203761E02
$$ 6.326799E01, 3.159157E02
$$ 6.357237E01, 3.114607E02
$$ 6.387577E01, 3.070111E02
$$ 6.417818E01, 3.025669E02
$$ 6.447959E01, 2.981281E02
$$ 6.478001E01, 2.936947E02
$$ 6.507941E01, 2.892667E02
$$ 6.537782E01, 2.848441E02
$$ 6.567520E01, 2.804269E02
$$ 6.597157E01, 2.760151E02
$$ 6.626692E01, 2.716087E02
$$ 6.656124E01, 2.672077E02
$$ 6.685453E01, 2.628121E02
$$ 6.714678E01, 2.584219E02
$$ 6.743799E01, 2.540371E02
$$ 6.772816E01, 2.496577E02
$$ 6.801727E01, 2.452837E02
$$ 6.830534E01, 2.409151E02
$$ 6.859234E01, 2.365519E02
$$ 6.887828E01, 2.321941E02
$$ 6.916315E01, 2.278417E02
$$ 6.944696E01, 2.234947E02
$$ 6.972968E01, 2.191531E02
$$ 7.001132E01, 2.148169E02
$$ 7.029188E01, 2.104861E02
$$ 7.057135E01, 2.061607E02
$$ 7.084973E01, 2.018407E02
$$ 7.112701E01, 1.975261E02
$$ 7.140318E01, 1.932169E02
$$ 7.167825E01, 1.889131E02
$$ 7.195221E01, 1.846147E02
$$ 7.222505E01, 1.803217E02
$$ 7.249678E01, 1.760341E02
$$ 7.276738E01, 1.717519E02
$$ 7.303685E01, 1.674751E02
$$ 7.330519E01, 1.632037E02
$$ 7.357239E01, 1.589377E02
$$ 7.383845E01, 1.546771E02
$$ 7.410337E01, 1.504219E02
$$ 7.436714E01, 1.461721E02
$$ 7.462976E01, 1.419277E02
$$ 7.489122E01, 1.376887E02
$$ 7.515152E01, 1.334551E02
$$ 7.541066E01, 1.292269E02
$$ 7.566863E01, 1.250041E02
$$ 7.592542E01, 1.207867E02
$$ 7.618104E01, 1.165747E02
$$ 7.643548E01, 1.123681E02
$$ 7.668873E01, 1.081669E02
$$ 7.694079E01, 1.039711E02
$$ 7.719167E01, 9.978067E01
$$ 7.744134E01, 9.559567E01
$$ 7.768981E01, 9.141607E01
$$ 7.793709E01, 8.724187E01
$$ 7.818315E01, 8.307307E01
$$ 7.842800E01, 7.890967E01
$$ 7.867163E01, 7.475167E01
$$ 7.891405E01, 7.059908E01
$$ 7.915524E01, 6.645187E01
$$ 7.939521E01, 6.231007E01
$$ 7.963395E01, 5.817368E01
$$ 7.987145E01, 5.404267E01
$$ 8.010771E01, 4.991708E01
$$ 8.034273E01, 4.579688E01
$$ 8.057651E01, 4.168207E01
$$ 8.080904E01, 3.757267E01
$$ 8.104031E01, 3.346867E01
$$ 8.127033E01, 2.937007E01
$$ 8.149909E01, 2.527687E01
$$ 8.172659E01, 2.118908E01
$$ 8.195282E01, 1.710667E01
$$ 8.217778E01, 1.302967E01
$$ 8.240147E01, 8.958075E00
$$ 8.262388E01, 4.891875E00
$$ 8.284501E01, 8.310750E-01
$$ 8.306485E01, 3.567757E02
$$ 8.328341E01, 3.527257E02
$$ 8.350068E01, 3.486811E02
$$ 8.371665E01, 3.446419E02
$$ 8.393132E01, 3.406081E02
$$ 8.414470E01, 3.365797E02
$$ 8.435677E01, 3.325567E02
$$ 8.456753E01, 3.285391E02
$$ 8.477698E01, 3.245269E02
$$ 8.498512E01, 3.205201E02
$$ 8.519194E01, 3.165187E02
$$ 8.539744E01, 3.125227E02
$$ 8.560162E01, 3.085321E02
$$ 8.580447E01, 3.045469E02
$$ 8.600599E01, 3.005671E02
$$ 8.620618E01, 2.965927E02
$$ 8.640503E01, 2.926237E02
$$ 8.660254E01, 2.886601E02
$$ 8.679871E01, 2.847019E02
$$ 8.699354E01, 2.807491E02
$$ 8.718701E01, 2.768017E02
$$ 8.737914E01, 2.728597E02
$$ 8.756991E01, 2.689231E02
$$ 8.775932E01, 2.649919E02
$$ 8.794738E01, 2.610661E02
$$ 8.813407E01, 2.571457E02
$$ 8.831939E01, 2.532307E02
$$ 8.850335E01, 2.493211E02
$$ 8.868593E01, 2.454169E02
$$ 8.886714E01, 2.415181E02
$$ 8.904697E01, 2.376247E02
$$ 8.922542E01, 2.337367E02
$$ 8.940249E01, 2.298541E02
$$ 8.957818E01, 2.259769E02
$$ 8.975247E01, 2.221051E02
$$ 8.992538E01, 2.182387E02
$$ 9.009689E01, 2.143777E02
$$ 9.026700E01, 2.105221E02
$$ 9.043572E01, 2.066719E02
$$ 9.060303E01, 2.028271E02
$$ 9.076894E01, 1.989877E02
$$ 9.093344E01, 1.951537E02
$$ 9.109653E01, 1.913251E02
$$ 9.125822E01, 1.875019E02
$$ 9.141848E01, 1.836841E02
$$ 9.157733E01, 1.798717E02
$$ 9.173476E01, 1.760647E02
$$ 9.189077E01, 1.722631E02
$$ 9.204536E01, 1.684669E02
$$ 9.219852E01, 1.646761E02
$$ 9.235024E01, 1.608907E02
$$ 9.250054E01, 1.571107E02
$$ 9.264941E01, 1.533361E02
$$ 9.279684E01, 1.495669E02
$$ 9.294283E01, 1.458031E02
$$ 9.308737E01, 1.420447E02
$$ 9.323048E01, 1.382917E02
$$ 9.337214E01, 1.345441E02
$$ 9.351236E01, 1.308019E02
$$ 9.365112E01, 1.270651E02
$$ 9.378844E01, 1.233337E02
$$ 9.392430E01, 1.196077E02
$$ 9.405870E01, 1.158871E02
$$ 9.419165E01, 1.121719E02
$$ 9.432314E01, 1.084621E02
$$ 9.445316E01, 1.047577E02
$$ 9.458172E01, 1.010587E02
$$ 9.470882E01, 9.736507E01
$$ 9.483445E01, 9.367687E01
$$ 9.495861E01, 8.999407E01
$$ 9.508129E01, 8.631668E01
$$ 9.520250E01, 8.264468E01
$$ 9.532224E01, 7.897807E01
$$ 9.544050E01, 7.531687E01
$$ 9.555728E01, 7.166107E01
$$ 9.567258E01, 6.801067E01
$$ 9.578640E01, 6.436568E01
$$ 9.589873E01, 6.072607E01
$$ 9.600957E01, 5.709187E01
$$ 9.611893E01, 5.346308E01
$$ 9.622680E01, 4.983967E01
$$ 9.633318E01, 4.622167E01
$$ 9.643806E01, 4.260907E01
$$ 9.654145E01, 3.900188E01
$$ 9.664334E01, 3.540008E01
$$ 9.674374E01, 3.180367E01
$$ 9.684263E01, 2.821267E01
$$ 9.694003E01, 2.462707E01
$$ 9.703592E01, 2.104688E01
$$ 9.713031E01, 1.747207E01
$$ 9.722319E01, 1.390267E01
$$ 9.731457E01, 1.033867E01
$$ 9.740443E01, 6.780075E00
$$ 9.749279E01, 3.226875E00
$$ 9.757964E01, 3.596791E02
$$ 9.766497E01, 3.561367E02
$$ 9.774879E01, 3.525997E02
$$ 9.783110E01, 3.490681E02
$$ 9.791189E01, 3.455419E02
$$ 9.799116E01, 3.420211E02
$$ 9.806892E01, 3.385057E02
$$ 9.814515E01, 3.349957E02
$$ 9.821986E01, 3.314911E02
$$ 9.829305E01, 3.279919E02
$$ 9.836472E01, 3.244981E02
$$ 9.843486E01, 3.210097E02
$$ 9.850348E01, 3.175267E02
$$ 9.857057E01, 3.140491E02
$$ 9.863613E01, 3.105769E02
$$ 9.870016E01, 3.071101E02
$$ 9.876267E01, 3.036487E02
$$ 9.882364E01, 3.001927E02
$$ 9.888308E01, 2.967421E02
$$ 9.894099E01, 2.932969E02
$$ 9.899737E01, 2.898571E02
$$ 9.905221E01, 2.864227E02
$$ 9.910551E01, 2.829937E02
$$ 9.915728E01, 2.795701E02
$$ 9.920752E01, 2.761519E02
$$ 9.925621E01, 2.727391E02
$$ 9.930337E01, 2.693317E02
$$ 9.934899E01, 2.659297E02
$$ 9.939307E01, 2.625331E02
$$ 9.943561E01, 2.591419E02
$$ 9.947660E01, 2.557561E02
$$ 9.951606E01, 2.523757E02
$$ 9.955397E01, 2.490007E02
$$ 9.959034E01, 2.456311E02
$$ 9.962517E01, 2.422669E02
$$ 9.965845E01, 2.389081E02
$$ 9.969019E01, 2.355547E02
$$ 9.972038E01, 2.322067E02
$$ 9.974903E01, 2.288641E02
$$ 9.977613E01, 2.255269E02
$$ 9.980168E01, 2.221951E02
$$ 9.982569E01, 2.188687E02
$$ 9.984815E01, 2.155477E02
$$ 9.986906E01, 2.122321E02
$$ 9.988843E01, 2.089219E02
$$ 9.990625E01, 2.056171E02
$$ 9.992252E01, 2.023177E02
$$ 9.993724E01, 1.990237E02
$$ 9.995041E01, 1.957351E02
$$ 9.996203E01, 1.924519E02
$$ 9.997210E01, 1.891741E02
$$ 9.998063E01, 1.859017E02
$$ 9.998760E01, 1.826347E02
$$ 9.999303E01, 1.793731E02
$$ 9.999690E01, 1.761169E02
$$ 9.999923E01, 1.728661E02
$$ 1.000000E02, 1.696207E02
$$ 1.000000E02, 1.663807E02
$$ 1.000000E02, 1.631461E02
$$ 1.000000E02, 1.599169E02
$$ 1.000000E02, 1.566931E02
$$ 1.000000E02, 1.534747E02
$$ 1.000000E02, 1.502617E02
$$ 1.000000E02, 1.470541E02
$$ 1.000000E02, 1.438519E02
$$ 1.000000E02, 1.406551E02
$$ 1.000000E02, 1.374637E02
$$ 1.000000E02, 1.342777E02
$$ 1.000000E02, 1.310971E02
$$ 1.000000E02, 1.279219E02
$$ 1.000000E02, 1.247521E02
$$ 1.000000E02, 1.215877E02
$$ 1.000000E02, 1.184287E02
$$ 1.000000E02, 1.152751E02
$$ 1.000000E02, 1.121269E02
$$ 1.000000E02, 1.089841E02
$$ 1.000000E02, 1.058467E02
$$ 1.000000E02, 1.027147E02
$$ 1.000000E02, 9.958808E01
$$ 1.000000E02, 9.646687E01
$$ 1.000000E02, 9.335107E01
$$ 1.000000E02, 9.024067E01
$$ 1.000000E02, 8.713567E01
$$ 1.000000E02, 8.403608E01
$$ 1.000000E02, 8.094188E01
$$ 1.000000E02, 7.785307E01
$$ 1.000000E02, 7.476967E01
$$ 1.000000E02, 7.169167E01
$$ 1.000000E02, 6.861908E01
$$ 1.000000E02, 6.555187E01
$$ 1.000000E02, 6.249007E01
$$ 1.000000E02, 5.943367E01
$$ 1.000000E02, 5.638267E01
$$ 1.000000E02, 5.333708E01
$$ 1.000000E02, 5.029688E01
$$ 1.000000E02, 4.726207E01
$$ 1.000000E02, 4.423267E01
$$ 1.000000E02, 4.120867E01
$$ 1.000000E02, 3.819007E01
$$ 1.000000E02, 3.517687E01
$$ 1.000000E02, 3.216908E01
$$ 1.000000E02, 2.916667E01
$$ 1.000000E02, 2.616967E01
$$ 1.000000E02, 2.317807E01
$$ 1.000000E02, 2.019187E01
$$ 1.000000E02, 1.721107E01
$$ 1.000000E02, 1.423568E01
$$ 1.000000E02, 1.126567E01
$$ 1.000000E02, 8.301075E00
$$ 1.000000E02, 5.341875E00
$$ 1.000000E02, 2.388075E00
$$ 1.000000E02, 3.594397E02
$$ 1.000000E02, 3.564967E02
$$ 1.000000E02, 3.535591E02
$$ 1.000000E02, 3.506269E02
$$ 1.000000E02, 3.477001E02
$$ 1.000000E02, 3.447787E02
$$ 1.000000E02, 3.418627E02
$$ 1.000000E02, 3.389521E02
$$ 1.000000E02, 3.360469E02
$$ 1.000000E02, 3.331471E02
$$ 1.000000E02, 3.302527E02
$$ 1.000000E02, 3.273637E02
$$ 1.000000E02, 3.244801E02
$$ 1.000000E02, 3.216019E02
$$ 1.000000E02, 3.187291E02
$$ 1.000000E02, 3.158617E02
$$ 1.000000E02, 3.129997E02
$$ 1.000000E02, 3.101431E02
$$ 1.000000E02, 3.072919E02
$$ 1.000000E02, 3.044461E02
$$ 1.000000E02, 3.016057E02
$$ 1.000000E02, 2.987707E02
$$ 1.000000E02, 2.959411E02
$$ 1.000000E02, 2.931169E02
$$ 1.000000E02, 2.902981E02
$$ 1.000000E02, 2.874847E02
$$ 1.000000E02, 2.846767E02
$$ 1.000000E02, 2.818741E02
$$ 1.000000E02, 2.790769E02
$$ 1.000000E02, 2.762851E02
$$ 1.000000E02, 2.734987E02
$$ 1.000000E02, 2.707177E02
$$ 1.000000E02, 2.679421E02
$$ 1.000000E02, 2.651719E02
$$ 1.000000E02, 2.624071E02
$$ 1.000000E02, 2.596477E02
$$ 1.000000E02, 2.568937E02
$$ 1.000000E02, 2.541451E02
$$ 1.000000E02, 2.514019E02
$$ 1.000000E02, 2.486641E02
$$ 1.000000E02, 2.459317E02
$$ 1.000000E02, 2.432047E02
$$ 1.000000E02, 2.404831E02
$$ 1.000000E02, 2.377669E02
$$ 1.000000E02, 2.350561E02
$$ 1.000000E02, 2.323507E02
$$ 1.000000E02, 2.296507E02
$$ 1.000000E02, 2.269561E02
$$ 1.000000E02, 2.242669E02
$$ 1.000000E02, 2.215831E02
$$ 1.000000E02, 2.189047E02
$$ 1.000000E02, 2.162317E02
$$ 1.000000E02, 2.135641E02
$$ 1.000000E02, 2.109019E02
$$ 1.000000E02, 2.082451E02
$$ 1.000000E02, 2.055937E02
$$ 1.000000E02, 2.029477E02
$$ 1.000000E02, 2.003071E02
$$ 1.000000E02, 1.976719E02
$$ 1.000000E02, 1.950421E02
$$ 1.000000E02, 1.924177E02
$$ 1.000000E02, 1.897987E02
$$ 1.000000E02, 1.871851E02
$$ 1.000000E02, 1.845769E02
$$ 1.000000E02, 1.819741E02
$$ 1.000000E02, 1.793767E02
$$ 1.000000E02, 1.767847E02
$$ 1.000000E02, 1.741981E02
$$ 1.000000E02, 1.716169E02
$$ 1.000000E02, 1.690411E02
$$ 1.000000E02, 1.664707E02
$$ 1.000000E02, 1.639057E02
$$ 1.000000E02, 1.613461E02
$$ 1.000000E02, 1.587919E02
$$ 1.000000E02, 1.562431E02
$$ 1.000000E02, 1.536997E02
$$ 1.000000E02, 1.511617E02
$$ 1.000000E02, 1.486291E02
$$ 1.000000E02, 1.461019E02
$$ 1.000000E02, 1.435801E02
$$ 1.000000E02, 1.410637E02
$$ 1.000000E02, 1.385527E02
$$ 1.000000E02, 1.360471E02
$$ 1.000000E02, 1.335469E02
$$ 1.000000E02, 1.310521E02
$$ 1.000000E02, 1.285627E02
$$ 1.000000E02, 1.260787E02
$$ 1.000000E02, 1.236001E02
$$ 1.000000E02, 1.211269E02
$$ 1.000000E02, 1.186591E02
$$ 1.000000E02, 1.161967E02
$$ 1.000000E02, 1.137397E02
$$ 1.000000E02, 1.112881E02
$$ 1.000000E02, 1.088419E02
$$ 1.000000E02, 1.064011E02
$$ 1.000000E02, 1.039657E02
$$ 1.000000E02, 1.015357E02
$$ 1.000000E02, 9.911107E01
$$ 1.000000E02, 9.669187E01
$$ 1.000000E02, 9.427807E01
$$ 1.000000E02, 9.186968E01
$$ 1.000000E02, 8.946667E01
$$ 1.000000E02, 8.706908E01
$$ 1.000000E02, 8.467687E01
$$ 1.000000E02, 8.229008E01
$$ 1.000000E02, 7.990868E01
$$ 1.000000E02, 7.753268E01
$$ 1.000000E02, 7.516207E01
$$ 1.000000E02, 7.279687E01
$$ 1.000000E02, 7.043707E01
$$ 1.000000E02, 6.808267E01
$$ 1.000000E02, 6.573368E01
$$ 1.000000E02, 6.339007E01
$$ 1.000000E02, 6.105188E01
$$ 1.000000E02, 5.871907E01
$$ 1.000000E02, 5.639168E01
$$ 1.000000E02, 5.406967E01
$$ 1.000000E02, 5.175308E01
$$ 1.000000E02, 4.944187E01
$$ 1.000000E02, 4.713607E01
$$ 1.000000E02, 4.483567E01
$$ 1.000000E02, 4.254067E01
$$ 1.000000E02, 4.025107E01
$$ 1.000000E02, 3.796687E01
$$ 1.000000E02, 3.568807E01
$$ 1.000000E02, 3.341467E01
$$ 1.000000E02, 3.114668E01
$$ 1.000000E02, 2.888407E01
$$ 1.000000E02, 2.662687E01
$$ 1.000000E02, 2.437507E01
$$ 1.000000E02, 2.212867E01
$$ 1.000000E02, 1.988768E01
$$ 1.000000E02, 1.765207E01
$$ 1.000000E02, 1.542188E01
$$ 1.000000E02, 1.319707E01
$$ 1.000000E02, 1.097767E01
$$ 1.000000E02, 8.763675E00
$$ 1.000000E02, 6.555075E00
$$ 1.000000E02, 4.351875E00
$$ 1.000000E02, 2.154075E00
$$ 1.000000E02, 3.599617E02
$$ 1.000000E02, 3.577747E02
$$ 1.000000E02, 3.555931E02
$$ 1.000000E02, 3.534169E02
$$ 1.000000E02, 3.512461E02
$$ 1.000000E02, 3.490807E02
$$ 1.000000E02, 3.469207E02
$$ 1.000000E02, 3.447661E02
$$ 1.000000E02, 3.426169E02
$$ 1.000000E02, 3.404731E02
$$ 1.000000E02, 3.383347E02
$$ 1.000000E02, 3.362017E02
$$ 1.000000E02, 3.340741E02
$$ 1.000000E02, 3.319519E02
$$ 1.000000E02, 3.298351E02
$$ 1.000000E02, 3.277237E02
$$ 1.000000E02, 3.256177E02
$$ 1.000000E02, 3.235171E02
$$ 1.000000E02, 3.214219E02
$$ 1.000000E02, 3.193321E02
$$ 1.000000E02, 3.172477E02
$$ 1.000000E02, 3.151687E02
$$ 1.000000E02, 3.130951E02
$$ 1.000000E02, 3.110269E02
$$ 1.000000E02, 3.089641E02
$$ 1.000000E02, 3.069067E02
$$ 1.000000E02, 3.048547E02
$$ 1.000000E02, 3.028081E02
$$ 1.000000E02, 3.007669E02
$$ 1.000000E02, 2.987311E02
$$ 1.000000E02, 2.967007E02
$$ 1.000000E02, 2.946757E02
$$ 1.000000E02, 2.926561E02
$$ 1.000000E02, 2.906419E02
$$ 1.000000E02, 2.886331E02
$$ 1.000000E02, 2.866297E02
$$ 1.000000E02, 2.846317E02
$$ 1.000000E02, 2.826391E02
$$ 1.000000E02, 2.806519E02
$$ 1.000000E02, 2.786701E02
$$ 1.000000E02, 2.766937E02
$$ 1.000000E02, 2.747227E02
$$ 1.000000E02, 2.727571E02
$$ 1.000000E02, 2.707969E02
$$ 1.000000E02, 2.688421E02
$$ 1.000000E02, 2.668927E02
$$ 1.000000E02, 2.649487E02
$$ 1.000000E02, 2.630101E02
$$ 1.000000E02, 2.610769E02
$$ 1.000000E02, 2.591491E02
$$ 1.000000E02, 2.572267E02
$$ 1.000000E02, 2.553097E02
$$ 1.000000E02, 2.533981E02
$$ 1.000000E02, 2.514919E02
$$ 1.000000E02, 2.495911E02
$$ 1.000000E02, 2.476957E02
$$ 1.000000E02, 2.458057E02
$$ 1.000000E02, 2.439211E02
$$ 1.000000E02, 2.420419E02
$$ 1.000000E02, 2.401681E02
$$ 1.000000E02, 2.382997E02
$$ 1.000000E02, 2.364367E02
$$ 1.000000E02, 2.345791E02
$$ 1.000000E02, 2.327269E02
$$ 1.000000E02, 2.308801E02
$$ 1.000000E02, 2.290387E02
$$ 1.000000E02, 2.272027E02
$$ 1.000000E02, 2.253721E02
$$ 1.000000E02, 2.235469E02
$$ 1.000000E02, 2.217271E02
$$ 1.000000E02, 2.199127E02
$$ 1.000000E02, 2.181037E02
$$ 1.000000E02, 2.163001E02
$$ 1.000000E02, 2.145019E02
$$ 1.000000E02, 2.127091E02
$$ 1.000000E02, 2.109217E02
$$ 1.000000E02, 2.091397E02
$$ 1.000000E02, 2.073631E02
$$ 1.000000E02, 2.055919E02
$$ 1.000000E02, 2.038261E02
$$ 1.000000E02, 2.020657E02
$$ 1.000000E02, 2.003107E02
$$ 1.000000E02, 1.985611E02
$$ 1.000000E02, 1.968169E02
$$ 1.000000E02, 1.950781E02
$$ 1.000000E02, 1.933447E02
$$ 1.000000E02, 1.916167E02
$$ 1.000000E02, 1.898941E02
$$ 1.000000E02, 1.881769E02
$$ 1.000000E02, 1.864651E02
$$ 1.000000E02, 1.847587E02
$$ 1.000000E02, 1.830577E02
$$ 1.000000E02, 1.813621E02
$$ 1.000000E02, 1.796719E02
$$ 1.000000E02, 1.779871E02
$$ 1.000000E02, 1.763077E02
$$ 1.000000E02, 1.746337E02
$$ 1.000000E02, 1.729651E02
$$ 1.000000E02, 1.713019E02
$$ 1.000000E02, 1.696441E02
$$ 1.000000E02, 1.679917E02
$$ 1.000000E02, 1.663447E02
$$ 1.000000E02, 1.647031E02
$$ 1.000000E02, 1.630669E02
$$ 1.000000E02, 1.614361E02
$$ 1.000000E02, 1.598107E02
$$ 1.000000E02, 1.581907E02
$$ 1.000000E02, 1.565761E02
$$ 1.000000E02, 1.549669E02
$$ 1.000000E02, 1.533631E02
$$ 1.000000E02, 1.517647E02
$$ 1.000000E02, 1.501717E02
$$ 1.000000E02, 1.485841E02
$$ 1.000000E02, 1.470019E02
$$ 1.000000E02, 1.454251E02
$$ 1.000000E02, 1.438537E02
$$ 1.000000E02, 1.422877E02
$$ 1.000000E02, 1.407271E02
$$ 1.000000E02, 1.391719E02
$$ 1.000000E02, 1.376221E02
$$ 1.000000E02, 1.360777E02
$$ 1.000000E02, 1.345387E02
$$ 1.000000E02, 1.330051E02
$$ 1.000000E02, 1.314769E02
$$ 1.000000E02, 1.299541E02
$$ 1.000000E02, 1.284367E02
$$ 1.000000E02, 1.269247E02
$$ 1.000000E02, 1.254181E02
$$ 1.000000E02, 1.239169E02
$$ 1.000000E02, 1.224211E02
$$ 1.000000E02, 1.209307E02
$$ 1.000000E02, 1.194457E02
$$ 1.000000E02, 1.179661E02
$$ 1.000000E02, 1.164919E02
$$ 1.000000E02, 1.150231E02
$$ 1.000000E02, 1.135597E02
$$ 1.000000E02, 1.121017E02
$$ 1.000000E02, 1.106491E02
$$ 1.000000E02, 1.092019E02
$$ 1.000000E02, 1.077601E02
$$ 1.000000E02, 1.063237E02
$$ 1.000000E02, 1.048927E02
$$ 1.000000E02, 1.034671E02
$$ 1.000000E02, 1.020469E02
$$ 1.000000E02, 1.006321E02
$$ 1.000000E02, 9.922267E01
$$ 1.000000E02, 9.781867E01
$$ 1.000000E02, 9.642008E01
$$ 1.000000E02, 9.502687E01
$$ 1.000000E02, 9.363907E01
$$ 1.000000E02, 9.225667E01
$$ 1.000000E02, 9.087967E01
$$ 1.000000E02, 8.950807E01
$$ 1.000000E02, 8.814188E01
$$ 1.000000E02, 8.678107E01
$$ 1.000000E02, 8.542567E01
$$ 1.000000E02, 8.407567E01
$$ 1.000000E02, 8.273107E01
$$ 1.000000E02, 8.139188E01
$$ 1.000000E02, 8.005807E01
$$ 1.000000E02, 7.872967E01
$$ 1.000000E02, 7.740667E01
$$ 1.000000E02, 7.608907E01
$$ 1.000000E02, 7.477687E01
$$ 1.000000E02, 7.347007E01
$$ 1.000000E02, 7.216868E01
$$ 1.000000E02, 7.087268E01
$$ 1.000000E02, 6.958208E01
$$ 1.000000E02, 6.829688E01
$$ 1.000000E02, 6.701708E01
$$ 1.000000E02, 6.574267E01
$$ 1.000000E02, 6.447367E01
$$ 1.000000E02, 6.321007E01
$$ 1.000000E02, 6.195188E01
$$ 1.000000E02, 6.069907E01
$$ 1.000000E02, 5.945167E01
$$ 1.000000E02, 5.820968E01
$$ 1.000000E02, 5.697307E01
$$ 1.000000E02, 5.574187E01
$$ 1.000000E02, 5.451608E01
$$ 1.000000E02, 5.329567E01
$$ 1.000000E02, 5.208067E01
$$ 1.000000E02, 5.087107E01
$$ 1.000000E02, 4.966687E01
$$ 1.000000E02, 4.846808E01
$$ 1.000000E02, 4.727468E01
$$ 1.000000E02, 4.608667E01
$$ 1.000000E02, 4.490408E01
$$ 1.000000E02, 4.372688E01
$$ 1.000000E02, 4.255507E01
$$ 1.000000E02, 4.138867E01
$$ 1.000000E02, 4.022767E01
$$ 1.000000E02, 3.907207E01
$$ 1.000000E02, 3.792187E01
$$ 1.000000E02, 3.677707E01
$$ 1.000000E02, 3.563767E01
$$ 1.000000E02, 3.450367E01
$$ 1.000000E02, 3.337507E01
$$ 1.000000E02, 3.225188E01
$$ 1.000000E02, 3.113407E01
$$ 1.000000E02, 3.002167E01
$$ 1.000000E02, 2.891467E01
$$ 1.000000E02, 2.781307E01
$$ 1.000000E02, 2.671688E01
$$ 1.000000E02, 2.562607E01
$$ 1.000000E02, 2.454067E01
$$ 1.000000E02, 2.346067E01
$$ 1.000000E02, 2.238608E01
$$ 1.000000E02, 2.131687E01
$$ 1.000000E02, 2.025307E01
$$ 1.000000E02, 1.919467E01
$$ 1.000000E02, 1.814167E01
$$ 1.000000E02, 1.709407E01
$$ 1.000000E02, 1.605187E01
$$ 1.000000E02, 1.501507E01
$$ 1.000000E02, 1.398367E01
$$ 1.000000E02, 1.295768E01
$$ 1.000000E02, 1.193707E01
$$ 1.000000E02, 1.092188E01
$$ 1.000000E02, 9.912075E00
$$ 1.000000E02, 8.907675E00
$$ 1.000000E02, 7.908675E00
$$ 1.000000E02, 6.915075E00
$$ 1.000000E02, 5.926875E00
$$ 1.000000E02, 4.944075E00
$$ 1.000000E02, 3.966675E00
$$ 1.000000E02, 2.994675E00
$$ 1.000000E02, 2.028075E00
$$ 1.000000E02, 1.066875E00
$$ 1.000000E02, 1.110750E-01
$$ 1.000000E02, 3.591607E02
$$ 1.000000E02, 3.582157E02
$$ 1.000000E02, 3.572761E02
$$ 1.000000E02, 3.563419E02
$$ 1.000000E02, 3.554131E02
$$ 1.000000E02, 3.544897E02
$$ 1.000000E02, 3.535717E02
$$ 1.000000E02, 3.526591E02
$$ 1.000000E02, 3.517519E02
$$ 1.000000E02, 3.508501E02
$$ 1.000000E02, 3.499537E02
$$ 1.000000E02, 3.490627E02
$$ 1.000000E02, 3.481771E02
$$ 1.000000E02, 3.472969E02
$$ 1.000000E02, 3.464221E02
$$ 1.000000E02, 3.455527E02
$$ 1.000000E02, 3.446887E02
$$ 1.000000E02, 3.438301E02
$$ 1.000000E02, 3.429769E02
$$ 1.000000E02, 3.421291E02
$$ 1.000000E02, 3.412867E02
$$ 1.000000E02, 3.404497E02
$$ 1.000000E02, 3.396181E02
$$ 1.000000E02, 3.387919E02
$$ 1.000000E02, 3.379711E02
$$ 1.000000E02, 3.371557E02
$$ 1.000000E02, 3.363457E02
$$ 1.000000E02, 3.355411E02
$$ 1.000000E02, 3.347419E02
$$ 1.000000E02, 3.339481E02
$$ 1.000000E02, 3.331597E02
$$ 1.000000E02, 3.323767E02
$$ 1.000000E02, 3.315991E02
$$ 1.000000E02, 3.308269E02
$$ 1.000000E02, 3.300601E02
$$ 1.000000E02, 3.292987E02
$$ 1.000000E02, 3.285427E02
$$ 1.000000E02, 3.277921E02
$$ 1.000000E02, 3.270469E02
$$ 1.000000E02, 3.263071E02
$$ 1.000000E02, 3.255727E02
$$ 1.000000E02, 3.248437E02
$$ 1.000000E02, 3.241201E02
$$ 1.000000E02, 3.234019E02
$$ 1.000000E02, 3.226891E02
$$ 1.000000E02, 3.219817E02
$$ 1.000000E02, 3.212797E02
$$ 1.000000E02, 3.205831E02
$$ 1.000000E02, 3.198919E02
$$ 1.000000E02, 3.192061E02
$$ 1.000000E02, 3.185257E02
$$ 1.000000E02, 3.178507E02
$$ 1.000000E02, 3.171811E02
$$ 1.000000E02, 3.165169E02
$$ 1.000000E02, 3.158581E02
$$ 1.000000E02, 3.152047E02
$$ 1.000000E02, 3.145567E02
$$ 1.000000E02, 3.139141E02
$$ 1.000000E02, 3.132769E02
$$ 1.000000E02, 3.126451E02
$$ 1.000000E02, 3.120187E02
$$ 1.000000E02, 3.113977E02
$$ 1.000000E02, 3.107821E02
$$ 1.000000E02, 3.101719E02
$$ 1.000000E02, 3.095671E02
$$ 1.000000E02, 3.089677E02
$$ 1.000000E02, 3.083737E02
$$ 1.000000E02, 3.077851E02
$$ 1.000000E02, 3.072019E02
$$ 1.000000E02, 3.066241E02
$$ 1.000000E02, 3.060517E02
$$ 1.000000E02, 3.054847E02
$$ 1.000000E02, 3.049231E02
$$ 1.000000E02, 3.043669E02
$$ 1.000000E02, 3.038161E02
$$ 1.000000E02, 3.032707E02
$$ 1.000000E02, 3.027307E02
$$ 1.000000E02, 3.021961E02
$$ 1.000000E02, 3.016669E02
$$ 1.000000E02, 3.011431E02
$$ 1.000000E02, 3.006247E02
$$ 1.000000E02, 3.001117E02
$$ 1.000000E02, 2.996041E02
$$ 1.000000E02, 2.991019E02
$$ 1.000000E02, 2.986051E02
$$ 1.000000E02, 2.981137E02
$$ 1.000000E02, 2.976277E02
$$ 1.000000E02, 2.971471E02
$$ 1.000000E02, 2.966719E02
$$ 1.000000E02, 2.962021E02
$$ 1.000000E02, 2.957377E02
$$ 1.000000E02, 2.952787E02
$$ 1.000000E02, 2.948251E02
$$ 1.000000E02, 2.943769E02
$$ 1.000000E02, 2.939341E02
$$ 1.000000E02, 2.934967E02
$$ 1.000000E02, 2.930647E02
$$ 1.000000E02, 2.926381E02
$$ 1.000000E02, 2.922169E02
$$ 1.000000E02, 2.918011E02
$$ 1.000000E02, 2.913907E02
$$ 1.000000E02, 2.909857E02
$$ 1.000000E02, 2.905861E02
$$ 1.000000E02, 2.901919E02
$$ 1.000000E02, 2.898031E02
$$ 1.000000E02, 2.894197E02
$$ 1.000000E02, 2.890417E02
$$ 1.000000E02, 2.886691E02
$$ 1.000000E02, 2.883019E02
$$ 1.000000E02, 2.879401E02
$$ 1.000000E02, 2.875837E02
$$ 1.000000E02, 2.872327E02
$$ 1.000000E02, 2.868871E02
$$ 1.000000E02, 2.865469E02
$$ 1.000000E02, 2.862121E02
$$ 1.000000E02, 2.858827E02
$$ 1.000000E02, 2.855587E02
$$ 1.000000E02, 2.852401E02
$$ 1.000000E02, 2.849269E02
$$ 1.000000E02, 2.846191E02
$$ 1.000000E02, 2.843167E02
$$ 1.000000E02, 2.840197E02
$$ 1.000000E02, 2.837281E02
$$ 1.000000E02, 2.834419E02
$$ 1.000000E02, 2.831611E02
$$ 1.000000E02, 2.828857E02
$$ 1.000000E02, 2.826157E02
$$ 1.000000E02, 2.823511E02
$$ 1.000000E02, 2.820919E02
$$ 1.000000E02, 2.818381E02
$$ 1.000000E02, 2.815897E02
$$ 1.000000E02, 2.813467E02
$$ 1.000000E02, 2.811091E02
$$ 1.000000E02, 2.808769E02
$$ 1.000000E02, 2.806501E02
$$ 1.000000E02, 2.804287E02
$$ 1.000000E02, 2.802127E02
$$ 1.000000E02, 2.800021E02
$$ 1.000000E02, 2.797969E02
$$ 1.000000E02, 2.795971E02
$$ 1.000000E02, 2.794027E02
$$ 1.000000E02, 2.792137E02
$$ 1.000000E02, 2.790301E02
$$ 1.000000E02, 2.788519E02
$$ 1.000000E02, 2.786791E02
$$ 1.000000E02, 2.785117E02
$$ 1.000000E02, 2.783497E02
$$ 1.000000E02, 2.781931E02
$$ 1.000000E02, 2.780419E02
$$ 1.000000E02, 2.778961E02
$$ 1.000000E02, 2.777557E02
$$ 1.000000E02, 2.776207E02
$$ 1.000000E02, 2.774911E02
$$ 1.000000E02, 2.773669E02
$$ 1.000000E02, 2.772481E02
$$ 1.000000E02, 2.771347E02
$$ 1.000000E02, 2.770267E02
$$ 1.000000E02, 2.769241E02
$$ 1.000000E02, 2.768269E02
$$ 1.000000E02, 2.767351E02
$$ 1.000000E02, 2.766487E02
$$ 1.000000E02, 2.765677E02
$$ 1.000000E02, 2.764921E02
$$ 1.000000E02, 2.764219E02
$$ 1.000000E02, 2.763571E02
$$ 1.000000E02, 2.762977E02
$$ 1.000000E02, 2.762437E02
$$ 1.000000E02, 2.761951E02
$$ 1.000000E02, 2.761519E02
$$ 1.000000E02, 2.761141E02
$$ 1.000000E02, 2.760817E02
$$ 1.000000E02, 2.760547E02
$$ 1.000000E02, 2.760331E02
$$ 1.000000E02, 2.760169E02
$$ 1.000000E02, 2.760061E02
$$ 1.000000E02, 2.760007E02
$$ 1.000000E02, 2.760007E02
$$ 1.000000E02, 2.760061E02
$$ 1.000000E02, 2.760169E02
$$ 1.000000E02, 2.760331E02
$$ 1.000000E02, 2.760547E02
$$ 1.000000E02, 2.760817E02
$$ 1.000000E02, 2.761141E02
$$ 1.000000E02, 2.761519E02
$$ 1.000000E02, 2.761951E02
$$ 1.000000E02, 2.762437E02
$$ 1.000000E02, 2.762977E02
$$ 1.000000E02, 2.763571E02
$$ 1.000000E02, 2.764219E02
$$ 1.000000E02, 2.764921E02
$$ 1.000000E02, 2.765677E02
$$ 1.000000E02, 2.766487E02
$$ 1.000000E02, 2.767351E02
$$ 1.000000E02, 2.768269E02
$$ 1.000000E02, 2.769241E02
$$ 1.000000E02, 2.770267E02
$$ 1.000000E02, 2.771347E02
$$ 1.000000E02, 2.772481E02
$$ 1.000000E02, 2.773669E02
$$ 1.000000E02, 2.774911E02
$$ 1.000000E02, 2.776207E02
$$ 1.000000E02, 2.777557E02
$$ 1.000000E02, 2.778961E02
$$ 1.000000E02, 2.780419E02
$$ 1.000000E02, 2.781931E02
$$ 1.000000E02, 2.783497E02
$$ 1.000000E02, 2.785117E02
$$ 1.000000E02, 2.786791E02
$$ 1.000000E02, 2.788519E02
$$ 1.000000E02, 2.790301E02
$$ 1.000000E02, 2.792137E02
$$ 1.000000E02, 2.794027E02
$$ 1.000000E02, 2.795971E02
$$ 1.000000E02, 2.797969E02
$$ 1.000000E02, 2.800021E02
$$ 1.000000E02, 2.802127E02
$$ 1.000000E02, 2.804287E02
$$ 1.000000E02, 2.806501E02
$$ 1.000000E02, 2.808769E02
$$ 1.000000E02, 2.811091E02
$$ 1.000000E02, 2.813467E02
$$ 1.000000E02, 2.815897E02
$$ 1.000000E02, 2.818381E02
$$ 1.000000E02, 2.820919E02
$$ 1.000000E02, 2.823511E02
$$ 1.000000E02, 2.826157E02
$$ 1.000000E02, 2.828857E02
$$ 1.000000E02, 2.831611E02
$$ 1.000000E02, 2.834419E02
$$ 1.000000E02, 2.837281E02
$$ 1.000000E02, 2.840197E02
$$ 1.000000E02, 2.843167E02
$$ 1.000000E02, 2.846191E02
$$ 1.000000E02, 2.849269E02
$$ 1.000000E02, 2.852401E02
$$ 1.000000E02, 2.855587E02
$$ 1.000000E02, 2.858827E02
$$ 1.000000E02, 2.862121E02
$$ 1.000000E02, 2.865469E02
$$ 1.000000E02, 2.868871E02
$$ 1.000000E02, 2.872327E02
$$ 1.000000E02, 2.875837E02
$$ 1.000000E02, 2.879401E02
$$ 1.000000E02, 2.883019E02
$$ 1.000000E02, 2.886691E02
$$ 1.000000E02, 2.890417E02
$$ 1.000000E02, 2.894197E02
$$ 1.000000E02, 2.898031E02
$$ 1.000000E02, 2.901919E02
$$ 1.000000E02, 2.905861E02
$$ 1.000000E02, 2.909857E02
$$ 1.000000E02, 2.913907E02
$$ 1.000000E02, 2.918011E02
$$ 1.000000E02, 2.922169E02
$$ 1.000000E02, 2.926381E02
$$ 1.000000E02, 2.930647E02
$$ 1.000000E02, 2.934967E02
$$ 1.000000E02, 2.939341E02
$$ 1.000000E02, 2.943769E02
$$ 1.000000E02, 2.948251E02
$$ 1.000000E02, 2.952787E02
$$ 1.000000E02, 2.957377E02
$$ 1.000000E02, 2.962021E02
$$ 1.000000E02, 2.966719E02
$$ 1.000000E02, 2.971471E02
$$ 1.000000E02, 2.976277E02
$$ 1.000000E02, 2.981137E02
$$ 1.000000E02, 2.986051E02
$$ 1.000000E02, 2.991019E02
$$ 1.000000E02, 2.996041E02
$$ 1.000000E02, 3.001117E02
$$ 1.000000E02, 3.006247E02
$$ 1.000000E02, 3.011431E02
$$ 1.000000E02, 3.016669E02
$$ 1.000000E02, 3.021961E02
$$ 1.000000E02, 3.027307E02
$$ 1.000000E02, 3.032707E02
$$ 1.000000E02, 3.038161E02
$$ 1.000000E02, 3.043669E02
$$ 1.000000E02, 3.049231E02
$$ 1.000000E02, 3.054847E02
$$ 1.000000E02, 3.060517E02
$$ 1.000000E02, 3.066241E02
$$ 1.000000E02, 3.072019E02
$$ 1.000000E02, 3.077851E02
$$ 1.000000E02, 3.083737E02
$$ 1.000000E02, 3.089677E02
$$ 1.000000E02, 3.095671E02
$$ 1.000000E02, 3.101719E02
$$ 1.000000E02, 3.107821E02
$$ 1.000000E02, 3.113977E02
$$ 1.000000E02, 3.120187E02
$$ 1.000000E02, 3.126451E02
$$ 1.000000E02, 3.132769E02
$$ 1.000000E02, 3.139141E02
$$ 1.000000E02, 3.145567E02
$$ 1.000000E02, 3.152047E02
$$ 1.000000E02, 3.158581E02
$$ 1.000000E02, 3.165169E02
$$ 1.000000E02, 3.171811E02
$$ 1.000000E02, 3.178507E02
$$ 1.000000E02, 3.185257E02
$$ 1.000000E02, 3.192061E02
$$ 1.000000E02, 3.198919E02
$$ 1.000000E02, 3.205831E02
$$ 1.000000E02, 3.212797E02
$$ 1.000000E02, 3.219817E02
$$ 1.000000E02, 3.226891E02
$$ 1.000000E02, 3.234019E02
$$ 1.000000E02, 3.241201E02
$$ 1.000000E02, 3.248437E02
$$ 1.000000E02, 3.255727E02
$$ 1.000000E02, 3.263071E02
$$ 1.000000E02, 3.270469E02
$$ 1.000000E02, 3.277921E02
$$ 1.000000E02, 3.285427E02
$$ 1.000000E02, 3.292987E02
$$ 1.000000E02, 3.300601E02
$$ 1.000000E02, 3.308269E02
$$ 1.000000E02, 3.315991E02
$$ 1.000000E02, 3.323767E02
$$ 1.000000E02, 3.331597E02
$$ 1.000000E02, 3.339481E02
$$ 1.000000E02, 3.347419E02
$$ 1.000000E02, 3.355411E02
$$ 1.000000E02, 3.363457E02
$$ 1.000000E02, 3.371557E02
$$ 1.000000E02, 3.379711E02
$$ 1.000000E02, 3.387919E02
$$ 1.000000E02, 3.396181E02
$$ 1.000000E02, 3.404497E02
$$ 1.000000E02, 3.412867E02
$$ 1.000000E02, 3.421291E02
$$ 1.000000E02, 3.429769E02
$$ 1.000000E02, 3.438301E02
$$ 1.000000E02, 3.446887E02
$$ 1.000000E02, 3.455527E02
$$ 1.000000E02, 3.464221E02
$$ 1.000000E02, 3.472969E02
$$ 1.000000E02, 3.481771E02
$$ 1.000000E02, 3.490627E02
$$ 1.000000E02, 3.499537E02
$$ 1.000000E02, 3.508501E02
$$ 1.000000E02, 3.517519E02
$$ 1.000000E02, 3.526591E02
$$ 1.000000E02, 3.535717E02
$$ 1.000000E02, 3.544897E02
$$ 1.000000E02, 3.554131E02
$$ 1.000000E02, 3.563419E02
$$ 1.000000E02, 3.572761E02
$$ 1.000000E02, 3.582157E02
$$ 1.000000E02, 3.591607E02
$$ 1.000000E02, 1.110750E-01
$$ 1.000000E02, 1.066875E00
$$ 1.000000E02, 2.028075E00
$$ 1.000000E02, 2.994675E00
$$ 1.000000E02, 3.966675E00
$$ 1.000000E02, 4.944075E00
$$ 1.000000E02, 5.926875E00
$$ 1.000000E02, 6.915075E00
$$ 1.000000E02, 7.908675E00
$$ 1.000000E02, 8.907675E00
$$ 1.000000E02, 9.912075E00
$$ 1.000000E02, 1.092188E01
$$ 1.000000E02, 1.193707E01
$$ 1.000000E02, 1.295768E01
$$ 1.000000E02, 1.398367E01
$$ 1.000000E02, 1.501507E01
$$ 1.000000E02, 1.605187E01
$$ 1.000000E02, 1.709407E01
$$ 1.000000E02, 1.814167E01
$$ 1.000000E02, 1.919467E01
$$ 1.000000E02, 2.025307E01
$$ 1.000000E02, 2.131687E01
$$ 1.000000E02, 2.238608E01
$$ 1.000000E02, 2.346067E01
$$ 1.000000E02, 2.454067E01
$$ 1.000000E02, 2.562607E01
$$ 1.000000E02, 2.671688E01
$$ 1.000000E02, 2.781307E01
$$ 1.000000E02, 2.891467E01
$$ 1.000000E02, 3.002167E01
$$ 1.000000E02, 3.113407E01
$$ 1.000000E02, 3.225188E01
$$ 1.000000E02, 3.337507E01
$$ 1.000000E02, 3.450367E01
$$ 1.000000E02, 3.563767E01
$$ 1.000000E02, 3.677707E01
$$ 1.000000E02, 3.792187E01
$$ 1.000000E02, 3.907207E01
$$ 1.000000E02, 4.022767E01
$$ 1.000000E02, 4.138867E01
$$ 1.000000E02, 4.255507E01
$$ 1.000000E02, 4.372688E01
$$ 1.000000E02, 4.490408E01
$$ 1.000000E02, 4.608667E01
$$ 1.000000E02, 4.727468E01
$$ 1.000000E02, 4.846808E01
$$ 1.000000E02, 4.966687E01
$$ 1.000000E02, 5.087107E01
$$ 1.000000E02, 5.208067E01
$$ 1.000000E02, 5.329567E01
$$ 1.000000E02, 5.451608E01
$$ 1.000000E02, 5.574187E01
$$ 1.000000E02, 5.697307E01
$$ 1.000000E02, 5.820968E01
$$ 1.000000E02, 5.945167E01
$$ 1.000000E02, 6.069907E01
$$ 1.000000E02, 6.195188E01
$$ 1.000000E02, 6.321007E01
$$ 1.000000E02, 6.447367E01
$$ 1.000000E02, 6.574267E01
$$ 1.000000E02, 6.701708E01
$$ 1.000000E02, 6.829688E01
$$ 1.000000E02, 6.958208E01
$$ 1.000000E02, 7.087268E01
$$ 1.000000E02, 7.216868E01
$$ 1.000000E02, 7.347007E01
$$ 1.000000E02, 7.477687E01
$$ 1.000000E02, 7.608907E01
$$ 1.000000E02, 7.740667E01
$$ 1.000000E02, 7.872967E01
$$ 1.000000E02, 8.005807E01
$$ 1.000000E02, 8.139188E01
$$ 1.000000E02, 8.273107E01
$$ 1.000000E02, 8.407567E01
$$ 1.000000E02, 8.542567E01
$$ 1.000000E02, 8.678107E01
$$ 1.000000E02, 8.814188E01
$$ 1.000000E02, 8.950807E01
$$ 1.000000E02, 9.087967E01
$$ 1.000000E02, 9.225667E01
$$ 1.000000E02, 9.363907E01
$$ 1.000000E02, 9.502687E01
$$ 1.000000E02, 9.642008E01
$$ 1.000000E02, 9.781867E01
$$ 1.000000E02, 9.922267E01
$$ 1.000000E02, 1.006321E02
$$ 1.000000E02, 1.020469E02
$$ 1.000000E02, 1.034671E02
$$ 1.000000E02, 1.048927E02
$$ 1.000000E02, 1.063237E02
$$ 1.000000E02, 1.077601E02
$$ 1.000000E02, 1.092019E02
$$ 1.000000E02, 1.106491E02
$$ 1.000000E02, 1.121017E02
$$ 1.000000E02, 1.135597E02
$$ 1.000000E02, 1.150231E02
$$ 1.000000E02, 1.164919E02
$$ 1.000000E02, 1.179661E02
$$ 1.000000E02, 1.194457E02
$$ 1.000000E02, 1.209307E02
$$ 1.000000E02, 1.224211E02
$$ 1.000000E02, 1.239169E02
$$ 1.000000E02, 1.254181E02
$$ 1.000000E02, 1.269247E02
$$ 1.000000E02, 1.284367E02
$$ 1.000000E02, 1.299541E02
$$ 1.000000E02, 1.314769E02
$$ 1.000000E02, 1.330051E02
$$ 1.000000E02, 1.345387E02
$$ 1.000000E02, 1.360777E02
$$ 1.000000E02, 1.376221E02
$$ 1.000000E02, 1.391719E02
$$ 1.000000E02, 1.407271E02
$$ 1.000000E02, 1.422877E02
$$ 1.000000E02, 1.438537E02
$$ 1.000000E02, 1.454251E02
$$ 1.000000E02, 1.470019E02
$$ 1.000000E02, 1.485841E02
$$ 1.000000E02, 1.501717E02
$$ 1.000000E02, 1.517647E02
$$ 1.000000E02, 1.533631E02
$$ 1.000000E02, 1.549669E02
$$ 1.000000E02, 1.565761E02
$$ 1.000000E02, 1.581907E02
$$ 1.000000E02, 1.598107E02
$$ 1.000000E02, 1.614361E02
$$ 1.000000E02, 1.630669E02
$$ 1.000000E02, 1.647031E02
$$ 1.000000E02, 1.663447E02
$$ 1.000000E02, 1.679917E02
$$ 1.000000E02, 1.696441E02
$$ 1.000000E02, 1.713019E02
$$ 1.000000E02, 1.729651E02
$$ 1.000000E02, 1.746337E02
$$ 1.000000E02, 1.763077E02
$$ 1.000000E02, 1.779871E02
$$ 1.000000E02, 1.796719E02
$$ 1.000000E02, 1.813621E02
$$ 1.000000E02, 1.830577E02
$$ 1.000000E02, 1.847587E02
$$ 1.000000E02, 1.864651E02
$$ 1.000000E02, 1.881769E02
$$ 1.000000E02, 1.898941E02
$$ 1.000000E02, 1.916167E02
$$ 1.000000E02, 1.933447E02
$$ 1.000000E02, 1.950781E02
$$ 1.000000E02, 1.968169E02
$$ 1.000000E02, 1.985611E02
$$ 1.000000E02, 2.003107E02
$$ 1.000000E02, 2.020657E02
$$ 1.000000E02, 2.038261E02
$$ 1.000000E02, 2.055919E02
$$ 1.000000E02, 2.073631E02
$$ 1.000000E02, 2.091397E02
$$ 1.000000E02, 2.109217E02
$$ 1.000000E02, 2.127091E02
$$ 1.000000E02, 2.145019E02
$$ 1.000000E02, 2.163001E02
$$ 1.000000E02, 2.181037E02
$$ 1.000000E02, 2.199127E02
$$ 1.000000E02, 2.217271E02
$$ 1.000000E02, 2.235469E02
$$ 1.000000E02, 2.253721E02
$$ 1.000000E02, 2.272027E02
$$ 1.000000E02, 2.290387E02
$$ 1.000000E02, 2.308801E02
$$ 1.000000E02, 2.327269E02
$$ 1.000000E02, 2.345791E02
$$ 1.000000E02, 2.364367E02
$$ 1.000000E02, 2.382997E02
$$ 1.000000E02, 2.401681E02
$$ 1.000000E02, 2.420419E02
$$ 1.000000E02, 2.439211E02
$$ 1.000000E02, 2.458057E02
$$ 1.000000E02, 2.476957E02
$$ 1.000000E02, 2.495911E02
$$ 1.000000E02, 2.514919E02
$$ 1.000000E02, 2.533981E02
$$ 1.000000E02, 2.553097E02
$$ 1.000000E02, 2.572267E02
$$ 1.000000E02, 2.591491E02
$$ 1.000000E02, 2.610769E02
$$ 1.000000E02, 2.630101E02
$$ 1.000000E02, 2.649487E02
$$ 1.000000E02, 2.668927E02
$$ 1.000000E02, 2.688421E02
$$ 1.000000E02, 2.707969E02
$$ 1.000000E02, 2.727571E02
$$ 1.000000E02, 2.747227E02
$$ 1.000000E02, 2.766937E02
$$ 1.000000E02, 2.786701E02
$$ 1.000000E02, 2.806519E02
$$ 1.000000E02, 2.826391E02
$$ 1.000000E02, 2.846317E02
$$ 1.000000E02, 2.866297E02
$$ 1.000000E02, 2.886331E02
$$ 1.000000E02, 2.906419E02
$$ 1.000000E02, 2.926561E02
$$ 1.000000E02, 2.946757E02
$$ 1.000000E02, 2.967007E02
[...]
127570d5840k1196A03961f2637A09952j1726e2288J5204D8010O2946D7310l728
127581D3582a03142A4364K4639a14758C0244f7542A10992m6857k1900M5775a5260
127593a528j893A10044r702C8796b4791I9447e6383A37828a21027e5930A33672
127605F002P4651c7916C7891P6760n2957f9603a0024L273a528A29572m9797b8474
127618f1571C7692A6976F653c5730j06378b4756G6619g77F0567J09697E9034a4218
127631f4665K2088j09189g0015B9838a23633D9049b3672C2946B861i9776F425
127643B8683a7985j0755l29j2726g6p392D968d6378A5785O7443G455O9998e2723
127657B6351K089P220Q4731k2495m4593a4266l1251l1645J6991F6657a3727D419
127670c0552P337D706d2177k1972B7227a14401b3395B6198r101j172c4883k9320
127682f4203D0079d6307a2945A2262b27561C5761g7020K7900E4163R1658a207
127694G7368d6967E6278a3787j43156J2059A3706f8526o500A8549b6634N663H4835
127707F2416J3796j2026K8658L2928i4964k053h644E3354k2335a00796G0338D97
127720F2939k4168b4631j1069r290J5067A30838e5279A9863D002O9601e747D5150
127733a38918H4J0017L9153N246d3453Q469j5371b3400o370n7773D1793Q48a06429
127747d4899a685D2548e9274D985f897r3447B1479L0090d3585F2162f3447E3400
127760F5208b4499l7341E3842h9391I7237e6623n679D1368d3053A59517A3434
127772G3641B2981a9560k2786E3300L3108f928p6339a7113l4701k0308C408a6343
127785f4418b6236h981n74o0571B2049g2976A3814c1416b463B7646d6575I1470
127798i2796d5422B6248L9949a387m199F545M769Q3195l1413a13910c578m1704
127810d5282M866j486C0645h612B8772p876N1610l1016O28A0529h0143J9279J6118
127823d4746a0549H102J7717a8000o6835A29630m2149e5041E6833a08900f67B9885
127836f582j01468M3448h794A82651b917m4032F0814M6080B8329b4382D80a0565
127849g2968E9453k1272a20527a4386l1948J5187F7095a06065d0811b503A00084
127861E2863e2449A840a6249F9274a12260N5369m4490d3724G8810C8759d11m0378
127873d0789l5932L7672E3116f3961A0609J29745E863e4055D4781O0415A9989
127885b8935M032E4867c9331E8261b485F7690h6131j0544d3737l1274D775f939
127898A94363d4778j9680B5421c3125E2384M5580c312l1312k7382C185b1436A17063
127911A7614c0556I96J45107D5781a05608D4004A6093L5511a8777j6189B2207
127923d9422D5685c1099C5301h4232I8633d9853A23532g7178J1512J7243p1504
127934a19927C098J7000B434J0177c8664C1072F314a06047D3501R2417a1232C6862
127947b6290q9649C7993m133c1728F6208O718k7548J02287i522C6251H142d3974
127960E0546c5444E6098c3564p732e149A8916a2268G1390g548F5784B3193O7361
127972I0554L6014H930e198B6820J9992j1350a7408k6451J8046m3292D550f2121
127985i637J086j3016c434j21492B6977J9042h2029m8964b4787J394j1484L369
127997c1508a2302l5154p3397e6192F9924a0477K773H4687e5161b1804l6462C497
128010i2360J952L6236F921c3877J4002C3421e4113C0367P3825j5234a6968B0163
128023b0644F064K0244a16223G2123b6962j18450A16917C7831j370P5319l3795
128034G7985b9573a2322n1205A7272L2296j4611a9976E1742p628J1254f9846E3902
128047H57K6259a28609H2228D133Q4546f2765A21357k9830f6462A4566L4881K2922
128059G2369G882c781I8021B6948f3246I4380C2612L7881B580L8931K1103h6367
128072d6055j31085C146b0332j2959j41274A63357Q145a08810M3200C1762J27271
128083A59033a29810H8774b1975i019E2419d0083n3823A8575J14408c195L58F9628
128096A15239a18717o335K5279M8701J8756A2006M7039a38398b6841J5O117I8143
128109e5115D6089b6177r0513c8098I2738b0487n3332F495K0401M3912M8308c7315
128122D1051b1111p7080G3458N4209o3039c9955G4050C2511f7848J8389B0531
128134e4900k0012n0E1816J0702a7692p117A58471p2709a30152A0039a10132F4130
128147a20844i576j12832A7032c0247A15582l7664e0966j17458c3014D5483f8924
128159i302b212A5207c1816n7419c3504D151P1720n297P4185d3394A4884f2292
128172I7902l309k2792k8488f2472J4159K0386E915J07559h703B8558e5448m838
128184f0286a7850N958A7741a9150i053D8750I054a3052j0594H7261f7979r7368
128196a65347E2777M9204b6089H7592a15128A9322b3975m5492a8651F7463l0811
128207C6652a64411B8153P5546h0657D6373N8246m1788a3020j30359b1188H7622
128219G1463M1044D2135A3789d7255n1065D8759d5684D3848N241g877A5296r46
128231A4350i0771J1431E7572g6144b6931j17689b4522n5539A8686R0079O051
128242A14816c9029I3828J5094G989Q5216f4832A7116e8489l5733C7457O845a95128
128255d1544D7414b3067B9648L6905a05348E2587b5120k5494b2603j60753d7723
128267a66705G4582e5699B4729N8536L5741B4784L6354h9800c8813E8740O849
128278F5589k728i5866K0464a1263B0538r92J2581E144L0815Q5125a13291H2856
128291A16714D0114e3832A7521q637a1715l1890m0260E5445A1073J66921h4153
128303I0034G230K0564a1864k025C1814g1479E9038a96046A16288h5347m3416
128314a28763a7923A46933a00071G8689J0555D0520c1017J2507C033i1486b670
128326C2662g5875E2164j7320h1619C4731G456M8212B7825a7705q8440E535N6816
128338F2351M1578a04084L6446A4317a23985c696G397M8714c713k5317A19383
128350E4095O9665A8714a9144B9184b2670B8492p039J4757A2804L3340e1761l4984
128362h6745C333a8438C2159g7215g881l244j4221F9281K1749b2844D6270g1695
128375A17983k7323I181i6321b8287A1375b9459N998A0137L2914g0391H9008b5008
128388A07345q72B6973P0705D458b9314A3983L2475i369E1331a07896d5410j6708
128400f2118j2311j8a6655G497b4674G1299h5396G033L1640a5365B8731d5993
128413G7656l1912K2417R735l1960c7205n0715n3249c8520k051A8765a17128C8874
128426F194d0669C2437L0170c953B9777b9532B13394r1863a11476G2713k8899
128437D3814M7380l8165i4418l4183A5959d710j30713b1430n1459A6385g7437
128449c6156I2125l5042i0447J1480b6673r2962d2665E4428e4575c937F597K7665
128461C4262Q4561j8591b1451o2084F2534k9352b8117m7055j7712M6241G3929
128473C7040a094m1588Q053m8789J0004D4720M7934B505e7430F0503k6142l944
128485C0417c8656B8634l544L8226k8512c5417m1446k4058I1305l9760A3626g774
128498a00212I3575A6279J48888F9082f6098A3133c2090k3235m93A3887K8179
128509D2066a9915I3960B4342b4916l5473A02749a29650c5003F9206i0423a590
128521a06589B8635g7273G0080a02889G8159a29510A934h4646A7049a2315o0894
128532g3209A9956f4084A7852K0239a7341j35207G2679J6619b492C4822O8910
128543A03732H019R7373a32399b1487l0831P844B47280a9712D8875n236i2357
128555f6951C3183g0676C412M0597L5147A6024g1958b7285B1313L1605d6409E5276
128568F5493b4362j32068f9650k9482b4913A43344C2434N3160C2802d3563C015
128580A6607N4873J3766h2321J7233b5467H2734h3116C5546a38806e8801B38896
128592a8379B0786b125D4997L9535l6589L6046A309i0772m3774k6990B7144f2717
128605F9145a7252j30846b8355k1895b1755A4359J1861C477J49609a79980O8925
128616a11055C6337l453O1867K5794P9366A8016M8053b9896d514l9764r9188A6860
128629b2397B0737K0979L35h8005D2442a12110c5664k9861A17156C4066j0958
128640B3108j539a1585C2039h092k2741m7737I361f9539D2212g2729A6794L4889
128652E1683g4903A431e2605F6751J0324J531H851c1179m8497J129k0119F9569
128665G8620J9946C9658a05143j2359e5497D1569g6788L0432f513E4423f5819
128677a19878d6163A23636a09380B0068K3571L7420B2152J18898f3681H3837g1990
128689c8575J0402G0454j5583a30555D5772h615k9293a6585E214j901b96j4045
128701a4341k814j1777j33721c142I1006C7060g4708J6167J4836n173n7248a5787
128714a0525A26552D7363e1414I9175a55715H137k381J7196b1408l0921a4336
128726B7906R7315A1259O294J3699d1264J5262j36602E0012d4449F1405L2860
128737I4265H001L0536L8817k2577g158F7298a4373A30828h456C5757l585e8094
128750a32027E1751M6355A2781Q7628k0034f257E2677I096K3912a78688D505K9256
128762C3761P941g9900A48561b4844N957j154q026O581H8039A4774N1186M6079
128774A12039a0094A73778F6888J05267b3505E1515c1985C0299i8517A35206b4874
128786f1278F8381a63708c2126D7718b1298D7407g1512r3387F860M7003a29610
128798A56375e4431l5H72e0623A8761J20013a25309e6472f917k0354B0849h698
128811a5688B0359J4729a22593A9168b5337j9662E1536a308o3966b4316E7775
128823b8247m9316B6740b9160h820q1047a3037F0392b960j01917C092J5021a8171
128836d4711k7384b580E5754J7581P3286G2749j83j0476a5135k3059J0865G0930
128849F8893J635e5017I8567A4754J08350i9438c139m208E6804a4809r0789D0658
128862A8831J9695B841L1341b467A8294M6242L730M3079a5140A03155e623q83
128874f506k8221a2143A05497C2071b8546m9503j7379D0900k07f8506F4467f1291
128887H6081A1270J8917c0624j1171H0743d4876c31C9038j8901M8229e6860a2229
128900D1322d5914C8099K5163J0469g1120K2597A0286a10314i320m774G6523k6823
128912D9700A4356J4272J14607C3250p303c1275j1951R524j52316E1118A6383
128924C1225g6733b0787p2005G8320B9822J809K2358j3662b2630D4223d382j03390
128936a07772C6434C369J42604a36493A58612c1805A57469a34934K1881D4623
128947c0213I0525H929K818Q372a7397p0138D9014M301q271D422c9938j9361b7977
128961D261c8222l1182k6822B5891N8304f8957M209F997a5166B5244a47424a9579
128974H1276J31477C5376k666d7676a207H4731i1647J6402D6460j5919j0396h440
128987A438N0043f0397G720P277a29353f0377j4252B17J05191c247B3791J41183
128999A64974a2507F8349A2141M052J31390F271d7322J3291D0673Q4386j8770
129010A06289b9752O546l8754O602G3726k6857M911e4749B1261a63745c6795A0807
129023A7229a80416A32881B3081a7594r1111q1228A5277c6901k1482R267J6904
129034c2212I5398a6636G8717g681G6313f7317r9906A72385L2042h9936B3978
129046g9514K5691K989a0922A58801p4079a54030P6821A2277d3878a0227j15106
129057a25333N2163B2253e5603i32I229Q1085j9736e3362D2016C249h0733C4795
129070f3343E8865K5393d5736G9601d6992A5705M3204l315g0844A3541J36391
129081A49932E5265j4387j7864K6282I071M0023J08311g5973E4127M457P3228
129092A31812D8255c8536l7405A15414d0167A0954J19177N9610E706b0233C6841
129104f1421I2964h6270I7479L4157d9321B3390M8285e4740F0505a5108l1097
129115d6205i787k10504c1425b663j00722A17190B2769N0146c6417q3755B015
129127C2833j0327c2658E1490h9471H722R402a7324k3129A84983e0323n8095D3647
129140f4568A0058K8933N4812Q3444B1053E967O7808B1911J16244B340O3552p818
129152E8074a70572B0041f3183K0060o4931B7743f3301A09064Q283b9287L826
129163b5461C2622K8434d3612F7646k7559J5193e416D3961N861L7146l5710a2927
129176c9335C8051f787j800E5404c7343a2791j2092P618k3901A9048J82951a36453
129189A26468d3237H6606m0365k1437e6273E9678f2572j23853B5720b2500C9e5955
129202A15366c2403I6101a58026B4602d0463B4784c2790m9687A06712i9397F3893
129214c5309F4752J4458e6774b5046B5693e1090i777C5534a6039a193E1458C212
129227b3639o1495A12244n5834L6980C717J0074J4811N632M2040g0260H3673e4094
129240D2216a02505f883j07437I9319J6251b4176k3504B8253M8675d3248A1903
129252e4764D6685L3805B0909J6579i5011A18291d6510E8723B8830h0126D5914
129264a09026b5015m8489H3506h5667K2536E6846J8952i9262A3779J16549E2343
129276a64219P5468C7652i7571a7251D0380e3753H0341k2747k4389f8008H5819
129288A10691I034d7427D5744C325L4684b2489F3375l537b2104P333G4266a21442
129301D9794j1480A8043D429h7991E2310a8467D6203O1420g0384a0937K586A05720
129314c3248J1161q4566E1837k133J1368J22475C4370M7936C6470g9456b975l3447
129326c6422l1514A19164c0553m0977Q65J2060a8764A2468a6340n3632A1505e1548
129339A1959M9886Q4531g478a279p5937J4471a8557j41014b1500E3584L1461K7535
129351A12580E2613B3652a30502b4153E9662k6983j5988d974o891p8747m7965
129362a38577G7492d5783A14718i7695j0005A379K179K50f739A83184E1885i8452
129375A29665a7711E7355J79386c0875m2602A05442b8590A4466a35082I1125e2993
129387c3774J6213a804F8798B6906a62546F6803J6930l7808Q103d1522k0455A973
129400i5657i733E0456d0023J4438r1089G4015d9342C8824a0434m1243a9961A472
129413e9352b6105A636i1027b3407j5818k048A44153h8388E6305f6386E5945B7915
129426b8520q4570i110A12841A0570a0243k6855G9077f6067B9379A3698R2761
129437A06459m9133k05e9619A23431g1002K0432A1270K9068a05338H3772A9775
129449b7857A25718k9006g7660K9296o8146A3164K791g6811j4930A45184A0886
129461D7142K3514j9541d9814a4985C3909A5175e2033B1064r554O4406d2998k388
129473d5386D5047B0938Q1193k6793G916J8851J28727c3325p5900n609B7363I762
129486G6044k2420h1164A8998a16585c9465O93n2167B9206N3815b1258I038i0876
129499h0267c7478B5735O738A2490J4486O559d2247J7641N64E9731q421a00561
129512C3293J4853K11364i7637C217K5068g684l8789H7981A8620H689e498A9313
129525i3311A442i069j17160B4594a9363A05679c4733D8665J4032j8260N8275
129536A02712A2473f2973D1939L028A5991L1498j7300a7685P758H7891c5200k6663
129548f1863d637G1043b9865C1430f3051H311J71435h972F3592l0262e606o1539
129560f7145A21596C2693A5451J09849F1397k6957f822A38275e1920K2510B2466
129572b3644N977F7557g8940K8341A2052c4917q6563F828R2608a52280A5355e2102
129585B0460M7662f3016K9325q6267a8305D7209h6950k0071A0437a0393C3390
129597a16286a082q1455B0311J1819h3362j8529K3301c6563j311A59245b18347
129609f8284a1830n1484c35p3059k6264E095j038O1989N0295m2131a5775B4230
129622C3871h6743a9483E3261r712K2920i7765l1108d4879j7424E1988j3651b8659
129635a8056j45448b3273B5843a55220C7420M3530B5930b7341A6625d1842H8194
129647a2856m652D8533P8082a6039A7134a4943j961C2925K7659K5440l2083e0380
129660c6345n5061e878l3515O063A15495C8087L9611i2966a7339G1234g8273B829
129673g1073G614j557K4884M3794O0098n0434i2449C9288B358K9301J1105e4814
129686C155d9522C311J36702d5499l2263H675N5255N474f9989A21848k1144e4600
129699b0752m6547B8281A3088a13958r4210A64510A7342c3727G8601l808k4481
129710E0312a1473p6208A5524N0313A3209K8476d3479n7682d1311j327p7241a5240
129723h2525C9569h9095A14256l0828i2245d3588J5821B0893e404B3639a23586
129735d2111J8705F3517f1202E3224j5082A5691d754G7209N499B766J35162D5537
129748G329M3796K9097a6117j9991L24F2347N2934C5421L3738O2321b8972a1589
129761b9811F0196k2033j727a7252l5566B1295K7298H577P0426i3525G8570b2395
129774B2417J54733a15530A00096h641o5096E1224f7750B6917g4601a1399n5643
129785f7042A01156M5684g83j5188j6136B8283A1498c9209B4608P219c8235A41905
129798F8315O1502c5538C9945g2698F2360i9194B3610J1664a11994b4035A5549
129810g5887K6675J6910k2707B6742Q7090g8388n7384M4778A03322e9D3628j1944
129822C1684L5044j9211a47628N7103a3508B3769b8833G7544h4170B1032b7470
129834I340M461N2529A4347K1200f6647K4037D7366D223M6688e1040K1521J2667
129846a6852j7311E3Q0114O1560A0662g5858G3415k2753K4959d3967p2605A38448
129859b3383K489j0495D4982d0064a6491l5286m3815a0621D2149c958l5301D3620
129872A6138a26953H3194h7891G2750R813L3824K4614h3140A2806a3028A03612
129884E8330Q363B8736d0728A8335c1760C7841J8541P3551c1058F4316D277f3185
129897D3066q390D630P9376c337D791b8699D6574P2187a1025k5670G2534j4566
129909E7968a34199B632K6051a21635d6394D0470J6494K9060a03824A07458m9261
129920E8197k6334r310e3954J313A35019I52e0159c741m8597a3252a512k1372
129932b2884J0693F9947c5929k1579B4475e9685b6561F2748K4550B4083L8641
129943F2724c9762a6885p884q357A46063F738f361G5981A0110O9770e6945n419
129955f2364C0940K0111B0550e1784j5358I2203C9203d9053G5668l0713a09767
129967h331C1416C097h570B7393J38232h2974A17232c808m050n908C3693P384
129979D1077A9070f0776D7195a7226o5460q2451B9680a10985c750I532K2457c90
129992G5271b3602j35227B8057g9325b959j00906c271D6466e2562k7742c144C3923
130005a8356k7123B6391a4469A19909D9070A8976A489N1518A9089L2834H519b290
130018F5659k2596b356F1011K6238O9850I35e7756D0700a27607d1870A8763O3235
130030H1998e5700b7447o3062L265D7400B1541d1936J7940A81712f7713F05P4679
130042G5284f2766f799D5762A0909a14292C9010h6075K8845k832C6000b3713I6673
130055D0598d7182a0361E3393a6768G455l703K1977J52637c0641l1610B7242b7212
130068A0610b980j1795F2886E411a31002C0506n495j0170O0023a353I1337i1599
130081C6652J25344C7577a8570F5487c5478n3007l890a6137k410F8487f3638l4162
130093i7800d4053n1493B10644G2618f4255g234A8956K4312G249c605p4469K4522
130105e3552m48j60445B4747g7150E9197c2174k4146j2523o1247B4169M0317r00
130117F3586J2097b1193C1486Q148J14389a03864k5867e6274H9510A3027L2611
130128D5638i7175r037F7331e3723a4273A4680b5755J616D2981a48099I4587H302
130141i1679b8732C0881g8035k5536C3660a22147A14251c9814E1040B3771d233
130153F7371m803R22m574a32750L2906C9405J8509j3217f1271m4837M1266l0417
130165i5259c5844A00674m5553o114a05898a8082E2329K6792a07269A5837d6093
130177G5771l2400a29733c1400G4007d17A26474g0584D6323e5212B9778a0075
130189h6171A32215a24922A01462M631A0930a4901j11149C589g6298A70559C853
130201H644J62949B3790K3071J3799b030j03973I5523a26145M6328D2800e6757
130213i0090A50299b4528B8869J7688P7337B1032p51R8120D4754M3148d2410F4775
130226B10598I5935d6178J6582I6560D6161g9809C6186d393A21410A0165a13424
130238d422D2836h6919C1654r021N0169Q0899A8061b5303E1698a76q888p724A7010
130252a0818k9368A8550d48D417M113c558p0232K9634E4134J6576h1882l9027
130264a20909N3731b6320A02434h3956n963A13035a8067k5834Q886E655J24257
130275A29912o2545j5542E957L2674k88b099A2847a14640G1279J6824j3178M3039
130287A17964n4288J32678D6803d2143o502G6332a14233C6979K7860b882F8282
130299E455A612h6164P111A5523K265b3070F6093D816c7304a268r3601H6045A5340
130313I2587B2950g8255f211k3105A58975d925j4192A8254R7345l6410A5746f422
130326i0696g154I5128d7059C9763J07451h0785H113J14746H807O6241e1794A40453
130339E3833e4360F2946e4577o4492N9180j0146j5566b2951H3407B2278A0089
130351D1942j8274D878a8356I377e1495o8550A64802c6326G165J5304a1467A3152
130364C7031J8473q296N5079c2984F4793f3957o9895E9035a304j5075k934A892
130377h2212E281J86788d7455A80685i544j0206l7894D5190M4133m1836a07446
130389a7292H8998f6164a6233g357j78301B7055q707K0806M1896A073b8705n7200
130401h5905j526l7865N2709A4531b3204j429l8650A6988f425j542A04331B4353
130414a250A07875C5385L9663a5331A733P0772a33463e5803I5824e1750O703G9551
130427d7375m31A02103j8977A2010h1651H163a87497B2511C785h7833G1341B4852
130440f1352K2554o1108d708g00j3296E9756J41824e6449C3438b5392m1095G1222
130453G0902a1307j16913B4257a59458b9227A01527D1098L393h3783a5403F0823
130465a4942H1602B4054J15402b4419n5485m205A5943P1522m0580J04a5129G3581
130478D5209A804g0827C5541h8669k460d774F8435f9445E0515e6839m5536b5935
130491C4170a6316F7833C2661a7277p102H7760C2495c0490b122F5265O9687E6826
130504e6261G7481L7170b2651C7366b8011I579f738E6669a21829c5357G5774d1098
130517B5159O0897r459j0730J1164i8642B3286c1777I392R3632A9932N8028e7192
130530C2574e0589A8833l620e0839E5729I095Q6001A1421K003i3503L3746C0495
130543c3683a0204A2141g0547A2894P0044f5520A27683G408b1361B5428L9308
130554F4736j5603M7762B7855j0985K0431R4761e7185B03197E8707e4992K5064
130565b9928A42409f892A4150K170f518b47C5385h78D2562A691Q0354E737B760
130579e22n6629A1594K3377j7057b4056E8236G820a07547F7307d5891A05168e8652
130592A3489f2587F6397k0665J579j4020e9063j1343E8873h1154c3157j8084a9732
130605g2436E3752b6509j049G4909B4164d8980k6435I7952g8171f295j23032C5579
130618e6183m0328L1062b8874e811m4933K1903J0882H4736b0962D6348f1229n2764
130630a13993a2518A86J12289A5197c1710A0971e6851D790b3037A23021o0653
130641F2368j1229a3990A19960e5431a6965H6118A9923O9712e4796m8620M3530
130652e9886l4900M0778J1198m2548E1427f9709F3L5062b8128r1564c4049j09034
130664a43083A7345L4379i5364A00919B2035O424N1471b0224B5909R5559m9213
130675G2255b1782o0556g848j9879a1022D393J09871j0343m7012b5072j9766J9043
130687b5795C8108e0961e738C1803A780L1213f8303C6392c1517A08534m7939k979
130699E7616B5990K8638f3363D4508i26A41225e4014E3344J2835B3342d6606F0907
130712c1254p4390G8408K0787j8550g4197C4234Q1a0698k9876m9562J9118E6356
130725D5182f5217b3140G7104d950m2532B0584J14696F6497A4646c3007J4476
130736a8531l9324D4985l797d6716q643A09689C7143A6041P4421a799r188j53038
130748a64025B2575i8421L4032m1004B1187J62067d4925A7245A730i4195B3842
130760d7171b905l9156A06670a37814f712q6367b5192q631j6921B5959b7934D4423
130773a2314G0124b2431F6682k170b6563H6563L2326E2009J0627L2738F097f3307
130786e8772b6669b171r9045K3694L0383I4880f0671B5918a96102h2562K7952
130797e4610b6929j3925o0181E5660R3997l9112D3249c8408B363K2109g0494B4769
130810B6252L8875a7916j52230g7545c0291I710f1900A02156B058h5764h920E7000
130823D1340M580d4593p3619q2758c3744J355C8364a14112D7548O1375l2511j6816
130835E9596I809K9844e0968j29364E7886D917b6737C9204J41534d5677E3107
130847d063o4747a7356C4760K3562B7679i7225K8791D968J03135h8237a9887r0159
130859a10046F0240J4490k723d5852D9386a16926G4257j8522L7374h0325a799
130871F1189a2746F0754b2869J703m9315A15406B3012L2106J8643d3124a6805
130883A26956p39i9298J5981g819A18806B1158h880A44842o3017i578j9865q7785
130895a17228i257m956N033A2169J5952b1483K393D0378m972K0001p890d2197
130908a56039b6015D8115d3941n649A24122h2104G0033l1788f594j00741e2811
130920B9866d6012A1127J53240B7793A1825i726m1399J9704i74n200A1415N1431
130932F2846e0968j05991C3221d4891a6776F9567C2830A5527C143R6024A5272
130944F4839n285h0693k8862G6862a5107E6083e7525A7119J21423b9175j8263
130955d7438G9499e5232A09377C8020a29882E593b4415m3265J2559n1281h001
130967c2689A3739M2047A9122d9345L948B09166F0114a34344A34317B4855g0706
130979F2684b3943A37822A3195f3951F5475d1279B4201d5968k8479R665B1519
130991a20404L8671J9820I042M2127d3192a3604l9949H9631k3209c0380A2559
131003E4325A4542e2119A7396g0627K9420K638k5428L0240E161K6566J27715G2200
131016a59998A1771e9692K5977o7913M9573L00C3713d3887B9662i261b248H8505
131029H198i803H8830b924n9104A48117c8457j8641J8707l711Q401m5925L9020
131041d0606B9156i732H3467d9744m2093A20040g8269A48863j4000B1547a1161
131053A4239a26320H732J9626a03457A37061B9477b160r7734d5620E275N459J07180
131065A17914f3854l8588A5588Q2589j6677d6656
##END NTUPLES=NMR FID
##END=
