##TITLE=13C zgdc30 BBO
##JCAMPDX= 6.0         $$ Bruker NMR JCAMP-DX V2.0
##DATA TYPE= NMR FID
##DATA CLASS= NTUPLES
##ORIGIN= Bruker BioSpin GmbH
##OWNER= NMR_mess
##LONG DATE= 2016/12/02 13:29:25+0000
$$ 1.90.2.2 TopSpin 3.5.b.91 pl 7
$$ 2020-03-04 19:30:24.108 +0100  nes@nmr-nesnotebook
$$ Compression mode = diff/dup
##.OBSERVE FREQUENCY= 150.93474743895
##.OBSERVE NUCLEUS= ^13C
##.DELAY= (6, 6)
##.ACQUISITION MODE= SIMULTANEOUS (DQD)
##.ACQUISITION SCHEME= undefined
##.AVERAGES= 28
##.DIGITISER RES= 21
##SPECTROMETER/DATA SYSTEM= spect
##.PULSE SEQUENCE= zgdc30
##.SOLVENT NAME= DMSO
##.SHIFT REFERENCE= INTERNAL, DMSO, 1, 193.6013
##AUDIT TRAIL= $$ (NUMBER, WHEN, WHO, WHERE, PROCESS, VERSION, WHAT)
$$ ##TITLE= Audit trail, TOPSPIN		Version 2.1
$$ ##JCAMPDX= 5.01
$$ ##ORIGIN= Bruker BioSpin GmbH
$$ ##OWNER= NMR_mess
$$ $$ /opt/topspin/data/NMR_mess/nmr/Prakt_Gr1_MethChLA/2/audita.txt
$$ ##AUDIT TRAIL=  $$ (NUMBER, WHEN, WHO, WHERE, PROCESS, VERSION, WHAT)
(   1,<2016-12-02 14:32:25.500 +0100>,<NMR_mess>,<av600.nmr.uni-koeln.de>,<go>,<TOPSPIN 2.1>,
      <created by zg
	started at 2016-12-02 14:28:15.092 +0100,
	POWCHK disabled, PULCHK disabled,
       terminated by command 'halt'
       configuration hash MD5:
       B8 5B 0F 6D 72 6E CD E8 2C BF 54 C4 C6 7B 61 10
       data hash MD5: 256K
       1C 03 F9 2D 60 B9 E7 C9 EB 09 3E 93 31 BA ED 8A>)
$$ ##END=
$$ 
$$ $$ hash MD5
$$ $$ 93 A0 4E F7 BD 5D 57 65 A8 B9 42 7A C4 3F 56 50
##$RELAX= 
##$BRUKER FILE EXP=cpdprg2
$$ ;$OWNER=Bruker
$$ 1 pcpd*3:180
$$   pcpd*4:0
$$   pcpd*2:180
$$   pcpd*3:0
$$   pcpd  :180
$$   pcpd*2:0
$$   pcpd*4:180
$$   pcpd*2:0
$$   pcpd*3:180
$$ 2 pcpd*3:0
$$   pcpd*4:180
$$   pcpd*2:0
$$   pcpd*3:180
$$   pcpd  :0
$$   pcpd*2:180
$$   pcpd*4:0
$$   pcpd*2:180
$$   pcpd*3:0
$$   lo to 2 times 2
$$ 3 pcpd*3:180
$$   pcpd*4:0
$$   pcpd*2:180
$$   pcpd*3:0
$$   pcpd  :180
$$   pcpd*2:0
$$   pcpd*4:180
$$   pcpd*2:0
$$   pcpd*3:180
$$   jump to 1
##$RELAX= 
##$BRUKER FILE EXP=format.temp
$$ EDIT_PAR COMMAND FILE
$$ 
$$ DI_MODE         LONG
$$ ED_ENTRY        ACQU
$$ ORDER           FILE
$$ 
$$ 
$$ HEADER		"F2 - Acquisition Parameters"
$$ T_NAME		Date_
$$ 		TYPE	R64
$$ 		CLASS	ACQU
$$ 		SUBRANGE 0.0 50000000
$$ 		REL	"Date_=itodate(DATE)"
$$ 		INV_REL	"DATE=datetoi(Date_,DATE)"
$$ 		FORMAT	"%14.0f"
$$ 		TEXT	" "
$$ END
$$ T_NAME		Time
$$ 		TYPE	R32
$$ 		CLASS	ACQU
$$ 		SUBRANGE 0.0 1000000
$$ 		REL	"Time=itotime(DATE)"
$$ 		INV_REL	"DATE=timetoi(Time,DATE)"
$$ 		FORMAT	"%14.2f"
$$ 		TEXT	" "
$$ END
$$ NAME		INSTRUM
$$ 		TEXT	" "
$$ END
$$ NAME		PROBHD
$$ 		FORMAT	"%14.14s"
$$ 		TEXT	" "
$$ END
$$ NAME		PULPROG
$$ 		TEXT	" "
$$ END
$$ NAME		TD
$$ 		TEXT	" "
$$ END
$$ NAME		SOLVENT
$$ 		TEXT	" "
$$ END
$$ NAME		NS
$$ 		TEXT	" "
$$ END
$$ NAME		DS
$$ 		TEXT	" "
$$ END
$$ T_NAME		SWH
$$ 		TYPE	R32
$$ 		CLASS	ACQU
$$ 		SUBRANGE 0.0 1e8
$$ 		REL	"SWH=SW*SFO1"
$$ 		INV_REL "SW=SWH/SFO1"
$$ 		UNIT	"Hz"
$$ 		FORMAT	"%14.3f Hz"
$$ 		TEXT	" "
$$ END
$$ T_NAME          FIDRES
$$                 TYPE    R32
$$                 CLASS   ACQU
$$                 SUBRANGE 0.0 100000
$$                 REL     "FIDRES=SW*SFO1/TD"
$$                 INV_REL "TD = nextpow(SW*SFO1/FIDRES)"
$$ 		UNIT	"Hz"
$$ 		FORMAT	"%14.6f Hz"
$$ 		TEXT	" "
$$ END
$$ T_NAME          AQ
$$ 		TYPE	R32
$$ 		CLASS	ACQU
$$ 		SUBRANGE 0.0 1000
$$ 		REL	"AQ=aqcalc(SW,SFO1,TD,DIGTYP)"
$$ 		INV_REL	"TD=tdcalc(SW,SFO1,1.0e6*AQ,DIGTYP)"
$$ 		UNIT	"sec"
$$ 		FORMAT	"%14.7f sec"
$$ 		TEXT	" "
$$ END
$$ NAME		RG
$$ 		TEXT	" "
$$ END
$$ T_NAME          DW
$$ 		TYPE	R32
$$ 		CLASS	ACQU
$$ 		SUBRANGE 0.0 1000000
$$ 		REL	"DW=1/(2*SW*SFO1)"
$$ 		INV_REL	"SW=1000000/(2*(0.005+DW)*SFO1)"
$$ 		UNIT	"usec"
$$ 		FORMAT	"%14.3lf usec"
$$ 		TEXT	" "
$$ END
$$ NAME		DE
$$ 		FORMAT	"%14.2f usec"
$$ 		TEXT	" "
$$ END
$$ NAME		TE
$$ 		FORMAT	"%14.1f K"
$$ 		TEXT	" "
$$ END
$$ T_NAME		D1
$$ 		TYPE	R32
$$ 		CLASS	ACQU
$$ 		SUBRANGE 0.0 1e38
$$ 		REL	"D1=D[1]"
$$ 		INV_REL	"D[1]=D1"
$$ 		UNIT	"sec"
$$ 		FORMAT	"%14.8f sec"
$$ 		TEXT	" "
$$ END
$$ T_NAME		D11
$$ 		TYPE	R32
$$ 		CLASS	ACQU
$$ 		SUBRANGE 0.0 1e38
$$ 		REL	"D11=D[11]"
$$ 		INV_REL	"D[11]=D11"
$$ 		UNIT	"sec"
$$ 		FORMAT	"%14.8f sec"
$$ 		TEXT	" "
$$ END
$$ NAME		TD0
$$ 		TEXT	" "
$$ END
$$ HEADER		"======== CHANNEL f1 ========"
$$ NAME		NUC1
$$ 		NONEDIT
$$ 		TEXT	" "
$$ END
$$ T_NAME		P1
$$ 		TYPE	R32
$$ 		CLASS	ACQU
$$ 		SUBRANGE 0.0 1.0e10
$$ 		REL	"P1=P[1]"
$$ 		INV_REL	"P[1]=P1"
$$ 		UNIT	"usec"
$$ 		FORMAT	"%14.2f usec"
$$ 		TEXT	" "
$$ END
$$ T_NAME		PL1
$$ 		TYPE	R32
$$ 		CLASS	ACQU
$$ 		SUBRANGE -6.0 1e38
$$ 		REL	"PL1=PL[1]"
$$ 		INV_REL	"PL[1]=PL1"
$$ 		UNIT	"dB"
$$ 		FORMAT	"%14.2f dB"
$$ 		TEXT	" "
$$ END
$$ T_NAME		PL1W
$$ 		TYPE	R32
$$ 		CLASS	ACQU
$$ 		SUBRANGE -6.0 1e38
$$ 		REL	"PL1W=329*pow(10.0,(-6-PL[1])/10.0)"
$$ 		INV_REL	"PL[1]=-6-4.3425*log(PL1W/329)"
$$ 		UNIT	"no"
$$ 		FORMAT	"%14.8f W"
$$ 		TEXT	" "
$$ END
$$ NAME		SFO1
$$ 		FORMAT	"%14.7f MHz"
$$ 		TEXT	" "
$$ END
$$ HEADER		"======== CHANNEL f2 ========"
$$ NAME		CPDPRG2
$$ 		TEXT	" "
$$ END
$$ NAME		NUC2
$$ 		NONEDIT
$$ 		TEXT	" "
$$ END
$$ T_NAME		PCPD2
$$ 		TYPE	R32
$$ 		CLASS	ACQU
$$ 		SUBRANGE 0 1e38
$$ 		REL	"PCPD2=PCPD[2]"
$$ 		INV_REL	"PCPD[2]=PCPD2"
$$ 		UNIT	"usec"
$$ 		FORMAT	"%14.2f usec"
$$ 		TEXT	" "
$$ END
$$ T_NAME		PL2
$$ 		TYPE	R32
$$ 		CLASS	ACQU
$$ 		SUBRANGE -6.0 1e38
$$ 		REL	"PL2=PL[2]"
$$ 		INV_REL	"PL[2]=PL2"
$$ 		UNIT	"dB"
$$ 		FORMAT	"%14.2f dB"
$$ 		TEXT	" "
$$ END
$$ T_NAME		PL12
$$ 		TYPE	R32
$$ 		CLASS	ACQU
$$ 		SUBRANGE -6.0 1e38
$$ 		REL	"PL12=PL[12]"
$$ 		INV_REL	"PL[12]=PL12"
$$ 		UNIT	"dB"
$$ 		FORMAT	"%14.2f dB"
$$ 		TEXT	" "
$$ END
$$ T_NAME		PL2W
$$ 		TYPE	R32
$$ 		CLASS	ACQU
$$ 		SUBRANGE -6.0 1e38
$$ 		REL	"PL2W=47*pow(10.0,(-6-PL[2])/10.0)"
$$ 		INV_REL	"PL[2]=-6-4.3425*log(PL2W/47)"
$$ 		UNIT	"no"
$$ 		FORMAT	"%14.8f W"
$$ 		TEXT	" "
$$ END
$$ T_NAME		PL12W
$$ 		TYPE	R32
$$ 		CLASS	ACQU
$$ 		SUBRANGE -6.0 1e38
$$ 		REL	"PL12W=47*pow(10.0,(-6-PL[12])/10.0)"
$$ 		INV_REL	"PL[12]=-6-4.3425*log(PL12W/47)"
$$ 		UNIT	"no"
$$ 		FORMAT	"%14.8f W"
$$ 		TEXT	" "
$$ END
$$ NAME		SFO2
$$ 		FORMAT	"%14.7f MHz"
$$ 		TEXT	" "
$$ END
##$RELAX= 
##$BRUKER FILE EXP=scon2
$$ ##TITLE= Parameter file, TOPSPIN		Version 2.1
$$ ##JCAMPDX= 5.0
$$ ##DATATYPE= Parameter Values
$$ ##NPOINTS= 1	$$ modification sequence number
$$ ##ORIGIN= Bruker BioSpin GmbH
$$ ##OWNER= NMR_mess
$$ $$ 2016-12-02 14:28:14.977 +0100  NMR_mess@av600.nmr.uni-koeln.de
$$ $$ /opt/topspin/data/NMR_mess/nmr/Prakt_Gr1_MethChLA/2/scon2
$$ $$ process /opt/topspin/prog/mod/go
$$ ##$BLKTR= (0..15)
3 3 3 3 3 3 3 3 3 3 3 3 3 3 3 3
$$ ##$DE1= 4.5
$$ ##$DEADC= 0.5
$$ ##$DEPA= 4.5
$$ ##$DERX= 1.5
$$ ##$FILCOR= 0
$$ ##END=
##$RELAX= 
##$BRUKER FILE EXP=spnam2
$$ ##TITLE= /u/exp/stan/nmr/lists/wave.dexam/Gaus1.1000
$$ ##JCAMP-DX= 5.00 Bruker JCAMP library
$$ ##DATA TYPE= Shape Data
$$ ##ORIGIN= Bruker Analytik GmbH
$$ ##OWNER= <demo>
$$ ##DATE= 01/05/08
$$ ##TIME= 12:57:44
$$ ##$SHAPE_PARAMETERS= Type: Gauss ; Truncation Level: 1 
$$ ##MINX= 1.000000e+00
$$ ##MAXX= 9.999954e+01
$$ ##MINY= 0.000000e+00
$$ ##MAXY= 0.000000e+00
$$ ##$SHAPE_EXMODE= Universal
$$ ##$SHAPE_TOTROT= 9.000000e+01
$$ ##$SHAPE_BWFAC= 2.122000e+00
$$ ##$SHAPE_INTEGFAC= 4.115776e-01
$$ ##$SHAPE_MODE= 0
$$ ##NPOINTS= 1000
$$ ##XYPOINTS= (XY..XY)
$$ 1.000000e+00, 0.000000e+00
$$ 1.018591e+00, 0.000000e+00
$$ 1.037490e+00, 0.000000e+00
$$ 1.056700e+00, 0.000000e+00
$$ 1.076227e+00, 0.000000e+00
$$ 1.096073e+00, 0.000000e+00
$$ 1.116245e+00, 0.000000e+00
$$ 1.136746e+00, 0.000000e+00
$$ 1.157580e+00, 0.000000e+00
$$ 1.178753e+00, 0.000000e+00
$$ 1.200269e+00, 0.000000e+00
$$ 1.222132e+00, 0.000000e+00
$$ 1.244348e+00, 0.000000e+00
$$ 1.266921e+00, 0.000000e+00
$$ 1.289855e+00, 0.000000e+00
$$ 1.313157e+00, 0.000000e+00
$$ 1.336830e+00, 0.000000e+00
$$ 1.360879e+00, 0.000000e+00
$$ 1.385310e+00, 0.000000e+00
$$ 1.410127e+00, 0.000000e+00
$$ 1.435337e+00, 0.000000e+00
$$ 1.460942e+00, 0.000000e+00
$$ 1.486950e+00, 0.000000e+00
$$ 1.513365e+00, 0.000000e+00
$$ 1.540192e+00, 0.000000e+00
$$ 1.567437e+00, 0.000000e+00
$$ 1.595105e+00, 0.000000e+00
$$ 1.623202e+00, 0.000000e+00
$$ 1.651732e+00, 0.000000e+00
$$ 1.680702e+00, 0.000000e+00
$$ 1.710117e+00, 0.000000e+00
$$ 1.739982e+00, 0.000000e+00
$$ 1.770304e+00, 0.000000e+00
$$ 1.801088e+00, 0.000000e+00
$$ 1.832339e+00, 0.000000e+00
$$ 1.864063e+00, 0.000000e+00
$$ 1.896267e+00, 0.000000e+00
$$ 1.928956e+00, 0.000000e+00
$$ 1.962136e+00, 0.000000e+00
$$ 1.995813e+00, 0.000000e+00
$$ 2.029994e+00, 0.000000e+00
$$ 2.064683e+00, 0.000000e+00
$$ 2.099888e+00, 0.000000e+00
$$ 2.135614e+00, 0.000000e+00
$$ 2.171868e+00, 0.000000e+00
$$ 2.208655e+00, 0.000000e+00
$$ 2.245983e+00, 0.000000e+00
$$ 2.283857e+00, 0.000000e+00
$$ 2.322285e+00, 0.000000e+00
$$ 2.361271e+00, 0.000000e+00
$$ 2.400824e+00, 0.000000e+00
$$ 2.440949e+00, 0.000000e+00
$$ 2.481653e+00, 0.000000e+00
$$ 2.522943e+00, 0.000000e+00
$$ 2.564825e+00, 0.000000e+00
$$ 2.607306e+00, 0.000000e+00
$$ 2.650393e+00, 0.000000e+00
$$ 2.694092e+00, 0.000000e+00
$$ 2.738411e+00, 0.000000e+00
$$ 2.783356e+00, 0.000000e+00
$$ 2.828934e+00, 0.000000e+00
$$ 2.875152e+00, 0.000000e+00
$$ 2.922018e+00, 0.000000e+00
$$ 2.969538e+00, 0.000000e+00
$$ 3.017720e+00, 0.000000e+00
$$ 3.066570e+00, 0.000000e+00
$$ 3.116095e+00, 0.000000e+00
$$ 3.166304e+00, 0.000000e+00
$$ 3.217203e+00, 0.000000e+00
$$ 3.268799e+00, 0.000000e+00
$$ 3.321101e+00, 0.000000e+00
$$ 3.374114e+00, 0.000000e+00
$$ 3.427848e+00, 0.000000e+00
$$ 3.482308e+00, 0.000000e+00
$$ 3.537503e+00, 0.000000e+00
$$ 3.593441e+00, 0.000000e+00
$$ 3.650128e+00, 0.000000e+00
$$ 3.707572e+00, 0.000000e+00
$$ 3.765782e+00, 0.000000e+00
$$ 3.824764e+00, 0.000000e+00
$$ 3.884526e+00, 0.000000e+00
$$ 3.945077e+00, 0.000000e+00
$$ 4.006424e+00, 0.000000e+00
$$ 4.068575e+00, 0.000000e+00
$$ 4.131537e+00, 0.000000e+00
$$ 4.195318e+00, 0.000000e+00
$$ 4.259927e+00, 0.000000e+00
$$ 4.325371e+00, 0.000000e+00
$$ 4.391659e+00, 0.000000e+00
$$ 4.458798e+00, 0.000000e+00
$$ 4.526796e+00, 0.000000e+00
$$ 4.595662e+00, 0.000000e+00
$$ 4.665402e+00, 0.000000e+00
$$ 4.736027e+00, 0.000000e+00
$$ 4.807543e+00, 0.000000e+00
$$ 4.879959e+00, 0.000000e+00
$$ 4.953282e+00, 0.000000e+00
$$ 5.027522e+00, 0.000000e+00
$$ 5.102687e+00, 0.000000e+00
$$ 5.178783e+00, 0.000000e+00
$$ 5.255821e+00, 0.000000e+00
$$ 5.333808e+00, 0.000000e+00
$$ 5.412752e+00, 0.000000e+00
$$ 5.492661e+00, 0.000000e+00
$$ 5.573545e+00, 0.000000e+00
$$ 5.655411e+00, 0.000000e+00
$$ 5.738268e+00, 0.000000e+00
$$ 5.822123e+00, 0.000000e+00
$$ 5.906986e+00, 0.000000e+00
$$ 5.992865e+00, 0.000000e+00
$$ 6.079768e+00, 0.000000e+00
$$ 6.167703e+00, 0.000000e+00
$$ 6.256679e+00, 0.000000e+00
$$ 6.346705e+00, 0.000000e+00
$$ 6.437788e+00, 0.000000e+00
$$ 6.529937e+00, 0.000000e+00
$$ 6.623161e+00, 0.000000e+00
$$ 6.717468e+00, 0.000000e+00
$$ 6.812866e+00, 0.000000e+00
$$ 6.909363e+00, 0.000000e+00
$$ 7.006969e+00, 0.000000e+00
$$ 7.105692e+00, 0.000000e+00
$$ 7.205539e+00, 0.000000e+00
$$ 7.306520e+00, 0.000000e+00
$$ 7.408642e+00, 0.000000e+00
$$ 7.511914e+00, 0.000000e+00
$$ 7.616345e+00, 0.000000e+00
$$ 7.721943e+00, 0.000000e+00
$$ 7.828715e+00, 0.000000e+00
$$ 7.936671e+00, 0.000000e+00
$$ 8.045819e+00, 0.000000e+00
$$ 8.156166e+00, 0.000000e+00
$$ 8.267722e+00, 0.000000e+00
$$ 8.380494e+00, 0.000000e+00
$$ 8.494491e+00, 0.000000e+00
$$ 8.609720e+00, 0.000000e+00
$$ 8.726191e+00, 0.000000e+00
$$ 8.843911e+00, 0.000000e+00
$$ 8.962887e+00, 0.000000e+00
$$ 9.083130e+00, 0.000000e+00
$$ 9.204645e+00, 0.000000e+00
$$ 9.327442e+00, 0.000000e+00
$$ 9.451528e+00, 0.000000e+00
$$ 9.576911e+00, 0.000000e+00
$$ 9.703600e+00, 0.000000e+00
$$ 9.831601e+00, 0.000000e+00
$$ 9.960923e+00, 0.000000e+00
$$ 1.009157e+01, 0.000000e+00
$$ 1.022356e+01, 0.000000e+00
$$ 1.035689e+01, 0.000000e+00
$$ 1.049157e+01, 0.000000e+00
$$ 1.062762e+01, 0.000000e+00
$$ 1.076502e+01, 0.000000e+00
$$ 1.090381e+01, 0.000000e+00
$$ 1.104397e+01, 0.000000e+00
$$ 1.118552e+01, 0.000000e+00
$$ 1.132847e+01, 0.000000e+00
$$ 1.147282e+01, 0.000000e+00
$$ 1.161859e+01, 0.000000e+00
$$ 1.176576e+01, 0.000000e+00
$$ 1.191437e+01, 0.000000e+00
$$ 1.206441e+01, 0.000000e+00
$$ 1.221588e+01, 0.000000e+00
$$ 1.236880e+01, 0.000000e+00
$$ 1.252317e+01, 0.000000e+00
$$ 1.267900e+01, 0.000000e+00
$$ 1.283630e+01, 0.000000e+00
$$ 1.299506e+01, 0.000000e+00
$$ 1.315531e+01, 0.000000e+00
$$ 1.331704e+01, 0.000000e+00
$$ 1.348026e+01, 0.000000e+00
$$ 1.364498e+01, 0.000000e+00
$$ 1.381120e+01, 0.000000e+00
$$ 1.397893e+01, 0.000000e+00
$$ 1.414817e+01, 0.000000e+00
$$ 1.431893e+01, 0.000000e+00
$$ 1.449122e+01, 0.000000e+00
$$ 1.466505e+01, 0.000000e+00
$$ 1.484040e+01, 0.000000e+00
$$ 1.501731e+01, 0.000000e+00
$$ 1.519575e+01, 0.000000e+00
$$ 1.537576e+01, 0.000000e+00
$$ 1.555732e+01, 0.000000e+00
$$ 1.574044e+01, 0.000000e+00
$$ 1.592513e+01, 0.000000e+00
$$ 1.611139e+01, 0.000000e+00
$$ 1.629923e+01, 0.000000e+00
$$ 1.648865e+01, 0.000000e+00
$$ 1.667966e+01, 0.000000e+00
$$ 1.687225e+01, 0.000000e+00
$$ 1.706644e+01, 0.000000e+00
$$ 1.726223e+01, 0.000000e+00
$$ 1.745962e+01, 0.000000e+00
$$ 1.765862e+01, 0.000000e+00
$$ 1.785922e+01, 0.000000e+00
$$ 1.806143e+01, 0.000000e+00
$$ 1.826527e+01, 0.000000e+00
$$ 1.847071e+01, 0.000000e+00
$$ 1.867779e+01, 0.000000e+00
$$ 1.888648e+01, 0.000000e+00
$$ 1.909680e+01, 0.000000e+00
$$ 1.930875e+01, 0.000000e+00
$$ 1.952234e+01, 0.000000e+00
$$ 1.973755e+01, 0.000000e+00
$$ 1.995440e+01, 0.000000e+00
$$ 2.017290e+01, 0.000000e+00
$$ 2.039303e+01, 0.000000e+00
$$ 2.061480e+01, 0.000000e+00
$$ 2.083821e+01, 0.000000e+00
$$ 2.106327e+01, 0.000000e+00
$$ 2.128997e+01, 0.000000e+00
$$ 2.151832e+01, 0.000000e+00
$$ 2.174831e+01, 0.000000e+00
$$ 2.197995e+01, 0.000000e+00
$$ 2.221324e+01, 0.000000e+00
$$ 2.244817e+01, 0.000000e+00
$$ 2.268476e+01, 0.000000e+00
$$ 2.292299e+01, 0.000000e+00
$$ 2.316286e+01, 0.000000e+00
$$ 2.340438e+01, 0.000000e+00
$$ 2.364755e+01, 0.000000e+00
$$ 2.389236e+01, 0.000000e+00
$$ 2.413882e+01, 0.000000e+00
$$ 2.438692e+01, 0.000000e+00
$$ 2.463666e+01, 0.000000e+00
$$ 2.488803e+01, 0.000000e+00
$$ 2.514105e+01, 0.000000e+00
$$ 2.539570e+01, 0.000000e+00
$$ 2.565198e+01, 0.000000e+00
$$ 2.590989e+01, 0.000000e+00
$$ 2.616942e+01, 0.000000e+00
$$ 2.643059e+01, 0.000000e+00
$$ 2.669337e+01, 0.000000e+00
$$ 2.695777e+01, 0.000000e+00
$$ 2.722378e+01, 0.000000e+00
$$ 2.749141e+01, 0.000000e+00
$$ 2.776064e+01, 0.000000e+00
$$ 2.803147e+01, 0.000000e+00
$$ 2.830390e+01, 0.000000e+00
$$ 2.857792e+01, 0.000000e+00
$$ 2.885353e+01, 0.000000e+00
$$ 2.913072e+01, 0.000000e+00
$$ 2.940949e+01, 0.000000e+00
$$ 2.968983e+01, 0.000000e+00
$$ 2.997174e+01, 0.000000e+00
$$ 3.025521e+01, 0.000000e+00
$$ 3.054023e+01, 0.000000e+00
$$ 3.082679e+01, 0.000000e+00
$$ 3.111490e+01, 0.000000e+00
$$ 3.140454e+01, 0.000000e+00
$$ 3.169571e+01, 0.000000e+00
$$ 3.198840e+01, 0.000000e+00
$$ 3.228259e+01, 0.000000e+00
$$ 3.257829e+01, 0.000000e+00
$$ 3.287549e+01, 0.000000e+00
$$ 3.317417e+01, 0.000000e+00
$$ 3.347433e+01, 0.000000e+00
$$ 3.377596e+01, 0.000000e+00
$$ 3.407905e+01, 0.000000e+00
$$ 3.438359e+01, 0.000000e+00
$$ 3.468957e+01, 0.000000e+00
$$ 3.499698e+01, 0.000000e+00
$$ 3.530581e+01, 0.000000e+00
$$ 3.561605e+01, 0.000000e+00
$$ 3.592769e+01, 0.000000e+00
$$ 3.624072e+01, 0.000000e+00
$$ 3.655513e+01, 0.000000e+00
$$ 3.687091e+01, 0.000000e+00
$$ 3.718804e+01, 0.000000e+00
$$ 3.750651e+01, 0.000000e+00
$$ 3.782631e+01, 0.000000e+00
$$ 3.814744e+01, 0.000000e+00
$$ 3.846986e+01, 0.000000e+00
$$ 3.879359e+01, 0.000000e+00
$$ 3.911859e+01, 0.000000e+00
$$ 3.944486e+01, 0.000000e+00
$$ 3.977238e+01, 0.000000e+00
$$ 4.010114e+01, 0.000000e+00
$$ 4.043112e+01, 0.000000e+00
$$ 4.076232e+01, 0.000000e+00
$$ 4.109471e+01, 0.000000e+00
$$ 4.142829e+01, 0.000000e+00
$$ 4.176303e+01, 0.000000e+00
$$ 4.209892e+01, 0.000000e+00
$$ 4.243594e+01, 0.000000e+00
$$ 4.277409e+01, 0.000000e+00
$$ 4.311333e+01, 0.000000e+00
$$ 4.345367e+01, 0.000000e+00
$$ 4.379507e+01, 0.000000e+00
$$ 4.413752e+01, 0.000000e+00
$$ 4.448102e+01, 0.000000e+00
$$ 4.482553e+01, 0.000000e+00
$$ 4.517104e+01, 0.000000e+00
$$ 4.551753e+01, 0.000000e+00
$$ 4.586499e+01, 0.000000e+00
$$ 4.621339e+01, 0.000000e+00
$$ 4.656273e+01, 0.000000e+00
$$ 4.691297e+01, 0.000000e+00
$$ 4.726410e+01, 0.000000e+00
$$ 4.761610e+01, 0.000000e+00
$$ 4.796895e+01, 0.000000e+00
$$ 4.832264e+01, 0.000000e+00
$$ 4.867713e+01, 0.000000e+00
$$ 4.903241e+01, 0.000000e+00
$$ 4.938847e+01, 0.000000e+00
$$ 4.974527e+01, 0.000000e+00
$$ 5.010280e+01, 0.000000e+00
$$ 5.046104e+01, 0.000000e+00
$$ 5.081997e+01, 0.000000e+00
$$ 5.117955e+01, 0.000000e+00
$$ 5.153978e+01, 0.000000e+00
$$ 5.190063e+01, 0.000000e+00
$$ 5.226208e+01, 0.000000e+00
$$ 5.262410e+01, 0.000000e+00
$$ 5.298667e+01, 0.000000e+00
$$ 5.334977e+01, 0.000000e+00
$$ 5.371337e+01, 0.000000e+00
$$ 5.407746e+01, 0.000000e+00
$$ 5.444201e+01, 0.000000e+00
$$ 5.480699e+01, 0.000000e+00
$$ 5.517238e+01, 0.000000e+00
$$ 5.553815e+01, 0.000000e+00
$$ 5.590429e+01, 0.000000e+00
$$ 5.627076e+01, 0.000000e+00
$$ 5.663755e+01, 0.000000e+00
$$ 5.700462e+01, 0.000000e+00
$$ 5.737195e+01, 0.000000e+00
$$ 5.773952e+01, 0.000000e+00
$$ 5.810730e+01, 0.000000e+00
$$ 5.847526e+01, 0.000000e+00
$$ 5.884338e+01, 0.000000e+00
$$ 5.921163e+01, 0.000000e+00
$$ 5.957999e+01, 0.000000e+00
$$ 5.994843e+01, 0.000000e+00
$$ 6.031691e+01, 0.000000e+00
$$ 6.068542e+01, 0.000000e+00
$$ 6.105393e+01, 0.000000e+00
$$ 6.142241e+01, 0.000000e+00
$$ 6.179083e+01, 0.000000e+00
$$ 6.215917e+01, 0.000000e+00
$$ 6.252740e+01, 0.000000e+00
$$ 6.289548e+01, 0.000000e+00
$$ 6.326340e+01, 0.000000e+00
$$ 6.363112e+01, 0.000000e+00
$$ 6.399861e+01, 0.000000e+00
$$ 6.436585e+01, 0.000000e+00
$$ 6.473281e+01, 0.000000e+00
$$ 6.509945e+01, 0.000000e+00
$$ 6.546576e+01, 0.000000e+00
$$ 6.583170e+01, 0.000000e+00
$$ 6.619724e+01, 0.000000e+00
$$ 6.656235e+01, 0.000000e+00
$$ 6.692700e+01, 0.000000e+00
$$ 6.729117e+01, 0.000000e+00
$$ 6.765482e+01, 0.000000e+00
$$ 6.801793e+01, 0.000000e+00
$$ 6.838046e+01, 0.000000e+00
$$ 6.874239e+01, 0.000000e+00
$$ 6.910368e+01, 0.000000e+00
$$ 6.946430e+01, 0.000000e+00
$$ 6.982423e+01, 0.000000e+00
$$ 7.018344e+01, 0.000000e+00
$$ 7.054188e+01, 0.000000e+00
$$ 7.089954e+01, 0.000000e+00
$$ 7.125639e+01, 0.000000e+00
$$ 7.161238e+01, 0.000000e+00
$$ 7.196750e+01, 0.000000e+00
$$ 7.232171e+01, 0.000000e+00
$$ 7.267498e+01, 0.000000e+00
$$ 7.302728e+01, 0.000000e+00
$$ 7.337857e+01, 0.000000e+00
$$ 7.372884e+01, 0.000000e+00
$$ 7.407804e+01, 0.000000e+00
$$ 7.442615e+01, 0.000000e+00
$$ 7.477314e+01, 0.000000e+00
$$ 7.511897e+01, 0.000000e+00
$$ 7.546361e+01, 0.000000e+00
$$ 7.580704e+01, 0.000000e+00
$$ 7.614922e+01, 0.000000e+00
$$ 7.649012e+01, 0.000000e+00
$$ 7.682971e+01, 0.000000e+00
$$ 7.716795e+01, 0.000000e+00
$$ 7.750483e+01, 0.000000e+00
$$ 7.784030e+01, 0.000000e+00
$$ 7.817434e+01, 0.000000e+00
$$ 7.850692e+01, 0.000000e+00
$$ 7.883800e+01, 0.000000e+00
$$ 7.916755e+01, 0.000000e+00
$$ 7.949554e+01, 0.000000e+00
$$ 7.982195e+01, 0.000000e+00
$$ 8.014674e+01, 0.000000e+00
$$ 8.046988e+01, 0.000000e+00
$$ 8.079134e+01, 0.000000e+00
$$ 8.111109e+01, 0.000000e+00
$$ 8.142910e+01, 0.000000e+00
$$ 8.174534e+01, 0.000000e+00
$$ 8.205978e+01, 0.000000e+00
$$ 8.237239e+01, 0.000000e+00
$$ 8.268313e+01, 0.000000e+00
$$ 8.299199e+01, 0.000000e+00
$$ 8.329892e+01, 0.000000e+00
$$ 8.360390e+01, 0.000000e+00
$$ 8.390690e+01, 0.000000e+00
$$ 8.420789e+01, 0.000000e+00
$$ 8.450684e+01, 0.000000e+00
$$ 8.480372e+01, 0.000000e+00
$$ 8.509850e+01, 0.000000e+00
$$ 8.539116e+01, 0.000000e+00
$$ 8.568165e+01, 0.000000e+00
$$ 8.596997e+01, 0.000000e+00
$$ 8.625607e+01, 0.000000e+00
$$ 8.653992e+01, 0.000000e+00
$$ 8.682151e+01, 0.000000e+00
$$ 8.710079e+01, 0.000000e+00
$$ 8.737775e+01, 0.000000e+00
$$ 8.765235e+01, 0.000000e+00
$$ 8.792457e+01, 0.000000e+00
$$ 8.819439e+01, 0.000000e+00
$$ 8.846176e+01, 0.000000e+00
$$ 8.872667e+01, 0.000000e+00
$$ 8.898908e+01, 0.000000e+00
$$ 8.924898e+01, 0.000000e+00
$$ 8.950633e+01, 0.000000e+00
$$ 8.976111e+01, 0.000000e+00
$$ 9.001329e+01, 0.000000e+00
$$ 9.026285e+01, 0.000000e+00
$$ 9.050976e+01, 0.000000e+00
$$ 9.075400e+01, 0.000000e+00
$$ 9.099553e+01, 0.000000e+00
$$ 9.123434e+01, 0.000000e+00
$$ 9.147040e+01, 0.000000e+00
$$ 9.170369e+01, 0.000000e+00
$$ 9.193418e+01, 0.000000e+00
$$ 9.216184e+01, 0.000000e+00
$$ 9.238666e+01, 0.000000e+00
$$ 9.260860e+01, 0.000000e+00
$$ 9.282766e+01, 0.000000e+00
$$ 9.304379e+01, 0.000000e+00
$$ 9.325699e+01, 0.000000e+00
$$ 9.346722e+01, 0.000000e+00
$$ 9.367448e+01, 0.000000e+00
$$ 9.387872e+01, 0.000000e+00
$$ 9.407994e+01, 0.000000e+00
$$ 9.427811e+01, 0.000000e+00
$$ 9.447320e+01, 0.000000e+00
$$ 9.466521e+01, 0.000000e+00
$$ 9.485411e+01, 0.000000e+00
$$ 9.503987e+01, 0.000000e+00
$$ 9.522248e+01, 0.000000e+00
$$ 9.540192e+01, 0.000000e+00
$$ 9.557818e+01, 0.000000e+00
$$ 9.575122e+01, 0.000000e+00
$$ 9.592103e+01, 0.000000e+00
$$ 9.608760e+01, 0.000000e+00
$$ 9.625091e+01, 0.000000e+00
$$ 9.641093e+01, 0.000000e+00
$$ 9.656765e+01, 0.000000e+00
$$ 9.672106e+01, 0.000000e+00
$$ 9.687114e+01, 0.000000e+00
$$ 9.701787e+01, 0.000000e+00
$$ 9.716123e+01, 0.000000e+00
$$ 9.730121e+01, 0.000000e+00
$$ 9.743780e+01, 0.000000e+00
$$ 9.757098e+01, 0.000000e+00
$$ 9.770073e+01, 0.000000e+00
$$ 9.782704e+01, 0.000000e+00
$$ 9.794990e+01, 0.000000e+00
$$ 9.806930e+01, 0.000000e+00
$$ 9.818522e+01, 0.000000e+00
$$ 9.829764e+01, 0.000000e+00
$$ 9.840656e+01, 0.000000e+00
$$ 9.851197e+01, 0.000000e+00
$$ 9.861384e+01, 0.000000e+00
$$ 9.871218e+01, 0.000000e+00
$$ 9.880697e+01, 0.000000e+00
$$ 9.889820e+01, 0.000000e+00
$$ 9.898586e+01, 0.000000e+00
$$ 9.906994e+01, 0.000000e+00
$$ 9.915043e+01, 0.000000e+00
$$ 9.922732e+01, 0.000000e+00
$$ 9.930061e+01, 0.000000e+00
$$ 9.937028e+01, 0.000000e+00
$$ 9.943633e+01, 0.000000e+00
$$ 9.949875e+01, 0.000000e+00
$$ 9.955754e+01, 0.000000e+00
$$ 9.961268e+01, 0.000000e+00
$$ 9.966418e+01, 0.000000e+00
$$ 9.971202e+01, 0.000000e+00
$$ 9.975620e+01, 0.000000e+00
$$ 9.979671e+01, 0.000000e+00
$$ 9.983356e+01, 0.000000e+00
$$ 9.986673e+01, 0.000000e+00
$$ 9.989623e+01, 0.000000e+00
$$ 9.992205e+01, 0.000000e+00
$$ 9.994418e+01, 0.000000e+00
$$ 9.996263e+01, 0.000000e+00
$$ 9.997739e+01, 0.000000e+00
$$ 9.998846e+01, 0.000000e+00
$$ 9.999585e+01, 0.000000e+00
$$ 9.999954e+01, 0.000000e+00
$$ 9.999954e+01, 0.000000e+00
$$ 9.999585e+01, 0.000000e+00
$$ 9.998846e+01, 0.000000e+00
$$ 9.997739e+01, 0.000000e+00
$$ 9.996263e+01, 0.000000e+00
$$ 9.994418e+01, 0.000000e+00
$$ 9.992205e+01, 0.000000e+00
$$ 9.989623e+01, 0.000000e+00
$$ 9.986673e+01, 0.000000e+00
$$ 9.983356e+01, 0.000000e+00
$$ 9.979671e+01, 0.000000e+00
$$ 9.975620e+01, 0.000000e+00
$$ 9.971202e+01, 0.000000e+00
$$ 9.966418e+01, 0.000000e+00
$$ 9.961268e+01, 0.000000e+00
$$ 9.955754e+01, 0.000000e+00
$$ 9.949875e+01, 0.000000e+00
$$ 9.943633e+01, 0.000000e+00
$$ 9.937028e+01, 0.000000e+00
$$ 9.930061e+01, 0.000000e+00
$$ 9.922732e+01, 0.000000e+00
$$ 9.915043e+01, 0.000000e+00
$$ 9.906994e+01, 0.000000e+00
$$ 9.898586e+01, 0.000000e+00
$$ 9.889820e+01, 0.000000e+00
$$ 9.880697e+01, 0.000000e+00
$$ 9.871218e+01, 0.000000e+00
$$ 9.861384e+01, 0.000000e+00
$$ 9.851197e+01, 0.000000e+00
$$ 9.840656e+01, 0.000000e+00
$$ 9.829764e+01, 0.000000e+00
$$ 9.818522e+01, 0.000000e+00
$$ 9.806930e+01, 0.000000e+00
$$ 9.794990e+01, 0.000000e+00
$$ 9.782704e+01, 0.000000e+00
$$ 9.770073e+01, 0.000000e+00
$$ 9.757098e+01, 0.000000e+00
$$ 9.743780e+01, 0.000000e+00
$$ 9.730121e+01, 0.000000e+00
$$ 9.716123e+01, 0.000000e+00
$$ 9.701787e+01, 0.000000e+00
$$ 9.687114e+01, 0.000000e+00
$$ 9.672106e+01, 0.000000e+00
$$ 9.656765e+01, 0.000000e+00
$$ 9.641093e+01, 0.000000e+00
$$ 9.625091e+01, 0.000000e+00
$$ 9.608760e+01, 0.000000e+00
$$ 9.592103e+01, 0.000000e+00
$$ 9.575122e+01, 0.000000e+00
$$ 9.557818e+01, 0.000000e+00
$$ 9.540192e+01, 0.000000e+00
$$ 9.522248e+01, 0.000000e+00
$$ 9.503987e+01, 0.000000e+00
$$ 9.485411e+01, 0.000000e+00
$$ 9.466521e+01, 0.000000e+00
$$ 9.447320e+01, 0.000000e+00
$$ 9.427811e+01, 0.000000e+00
$$ 9.407994e+01, 0.000000e+00
$$ 9.387872e+01, 0.000000e+00
$$ 9.367448e+01, 0.000000e+00
$$ 9.346722e+01, 0.000000e+00
$$ 9.325699e+01, 0.000000e+00
$$ 9.304379e+01, 0.000000e+00
$$ 9.282766e+01, 0.000000e+00
$$ 9.260860e+01, 0.000000e+00
$$ 9.238666e+01, 0.000000e+00
$$ 9.216184e+01, 0.000000e+00
$$ 9.193418e+01, 0.000000e+00
$$ 9.170369e+01, 0.000000e+00
$$ 9.147040e+01, 0.000000e+00
$$ 9.123434e+01, 0.000000e+00
$$ 9.099553e+01, 0.000000e+00
$$ 9.075400e+01, 0.000000e+00
$$ 9.050976e+01, 0.000000e+00
$$ 9.026285e+01, 0.000000e+00
$$ 9.001329e+01, 0.000000e+00
$$ 8.976111e+01, 0.000000e+00
$$ 8.950633e+01, 0.000000e+00
$$ 8.924898e+01, 0.000000e+00
$$ 8.898908e+01, 0.000000e+00
$$ 8.872667e+01, 0.000000e+00
$$ 8.846176e+01, 0.000000e+00
$$ 8.819439e+01, 0.000000e+00
$$ 8.792457e+01, 0.000000e+00
$$ 8.765235e+01, 0.000000e+00
$$ 8.737775e+01, 0.000000e+00
$$ 8.710079e+01, 0.000000e+00
$$ 8.682151e+01, 0.000000e+00
$$ 8.653992e+01, 0.000000e+00
$$ 8.625607e+01, 0.000000e+00
$$ 8.596997e+01, 0.000000e+00
$$ 8.568165e+01, 0.000000e+00
$$ 8.539116e+01, 0.000000e+00
$$ 8.509850e+01, 0.000000e+00
$$ 8.480372e+01, 0.000000e+00
$$ 8.450684e+01, 0.000000e+00
$$ 8.420789e+01, 0.000000e+00
$$ 8.390690e+01, 0.000000e+00
$$ 8.360390e+01, 0.000000e+00
$$ 8.329892e+01, 0.000000e+00
$$ 8.299199e+01, 0.000000e+00
$$ 8.268313e+01, 0.000000e+00
$$ 8.237239e+01, 0.000000e+00
$$ 8.205978e+01, 0.000000e+00
$$ 8.174534e+01, 0.000000e+00
$$ 8.142910e+01, 0.000000e+00
$$ 8.111109e+01, 0.000000e+00
$$ 8.079134e+01, 0.000000e+00
$$ 8.046988e+01, 0.000000e+00
$$ 8.014674e+01, 0.000000e+00
$$ 7.982195e+01, 0.000000e+00
$$ 7.949554e+01, 0.000000e+00
$$ 7.916755e+01, 0.000000e+00
$$ 7.883800e+01, 0.000000e+00
$$ 7.850692e+01, 0.000000e+00
$$ 7.817434e+01, 0.000000e+00
$$ 7.784030e+01, 0.000000e+00
$$ 7.750483e+01, 0.000000e+00
$$ 7.716795e+01, 0.000000e+00
$$ 7.682971e+01, 0.000000e+00
$$ 7.649012e+01, 0.000000e+00
$$ 7.614922e+01, 0.000000e+00
$$ 7.580704e+01, 0.000000e+00
$$ 7.546361e+01, 0.000000e+00
$$ 7.511897e+01, 0.000000e+00
$$ 7.477314e+01, 0.000000e+00
$$ 7.442615e+01, 0.000000e+00
$$ 7.407804e+01, 0.000000e+00
$$ 7.372884e+01, 0.000000e+00
$$ 7.337857e+01, 0.000000e+00
$$ 7.302728e+01, 0.000000e+00
$$ 7.267498e+01, 0.000000e+00
$$ 7.232171e+01, 0.000000e+00
$$ 7.196750e+01, 0.000000e+00
$$ 7.161238e+01, 0.000000e+00
$$ 7.125639e+01, 0.000000e+00
$$ 7.089954e+01, 0.000000e+00
$$ 7.054188e+01, 0.000000e+00
$$ 7.018344e+01, 0.000000e+00
$$ 6.982423e+01, 0.000000e+00
$$ 6.946430e+01, 0.000000e+00
$$ 6.910368e+01, 0.000000e+00
$$ 6.874239e+01, 0.000000e+00
$$ 6.838046e+01, 0.000000e+00
$$ 6.801793e+01, 0.000000e+00
$$ 6.765482e+01, 0.000000e+00
$$ 6.729117e+01, 0.000000e+00
$$ 6.692700e+01, 0.000000e+00
$$ 6.656235e+01, 0.000000e+00
$$ 6.619724e+01, 0.000000e+00
$$ 6.583170e+01, 0.000000e+00
$$ 6.546576e+01, 0.000000e+00
$$ 6.509945e+01, 0.000000e+00
$$ 6.473281e+01, 0.000000e+00
$$ 6.436585e+01, 0.000000e+00
$$ 6.399861e+01, 0.000000e+00
$$ 6.363112e+01, 0.000000e+00
$$ 6.326340e+01, 0.000000e+00
$$ 6.289548e+01, 0.000000e+00
$$ 6.252740e+01, 0.000000e+00
$$ 6.215917e+01, 0.000000e+00
$$ 6.179083e+01, 0.000000e+00
$$ 6.142241e+01, 0.000000e+00
$$ 6.105393e+01, 0.000000e+00
$$ 6.068542e+01, 0.000000e+00
$$ 6.031691e+01, 0.000000e+00
$$ 5.994843e+01, 0.000000e+00
$$ 5.957999e+01, 0.000000e+00
$$ 5.921163e+01, 0.000000e+00
$$ 5.884338e+01, 0.000000e+00
$$ 5.847526e+01, 0.000000e+00
$$ 5.810730e+01, 0.000000e+00
$$ 5.773952e+01, 0.000000e+00
$$ 5.737195e+01, 0.000000e+00
$$ 5.700462e+01, 0.000000e+00
$$ 5.663755e+01, 0.000000e+00
$$ 5.627076e+01, 0.000000e+00
$$ 5.590429e+01, 0.000000e+00
$$ 5.553815e+01, 0.000000e+00
$$ 5.517238e+01, 0.000000e+00
$$ 5.480699e+01, 0.000000e+00
$$ 5.444201e+01, 0.000000e+00
$$ 5.407746e+01, 0.000000e+00
$$ 5.371337e+01, 0.000000e+00
$$ 5.334977e+01, 0.000000e+00
$$ 5.298667e+01, 0.000000e+00
$$ 5.262410e+01, 0.000000e+00
$$ 5.226208e+01, 0.000000e+00
$$ 5.190063e+01, 0.000000e+00
$$ 5.153978e+01, 0.000000e+00
$$ 5.117955e+01, 0.000000e+00
$$ 5.081997e+01, 0.000000e+00
$$ 5.046104e+01, 0.000000e+00
$$ 5.010280e+01, 0.000000e+00
$$ 4.974527e+01, 0.000000e+00
$$ 4.938847e+01, 0.000000e+00
$$ 4.903241e+01, 0.000000e+00
$$ 4.867713e+01, 0.000000e+00
$$ 4.832264e+01, 0.000000e+00
$$ 4.796895e+01, 0.000000e+00
$$ 4.761610e+01, 0.000000e+00
$$ 4.726410e+01, 0.000000e+00
$$ 4.691297e+01, 0.000000e+00
$$ 4.656273e+01, 0.000000e+00
$$ 4.621339e+01, 0.000000e+00
$$ 4.586499e+01, 0.000000e+00
$$ 4.551753e+01, 0.000000e+00
$$ 4.517104e+01, 0.000000e+00
$$ 4.482553e+01, 0.000000e+00
$$ 4.448102e+01, 0.000000e+00
$$ 4.413752e+01, 0.000000e+00
$$ 4.379507e+01, 0.000000e+00
$$ 4.345367e+01, 0.000000e+00
$$ 4.311333e+01, 0.000000e+00
$$ 4.277409e+01, 0.000000e+00
$$ 4.243594e+01, 0.000000e+00
$$ 4.209892e+01, 0.000000e+00
$$ 4.176303e+01, 0.000000e+00
$$ 4.142829e+01, 0.000000e+00
$$ 4.109471e+01, 0.000000e+00
$$ 4.076232e+01, 0.000000e+00
$$ 4.043112e+01, 0.000000e+00
$$ 4.010114e+01, 0.000000e+00
$$ 3.977238e+01, 0.000000e+00
$$ 3.944486e+01, 0.000000e+00
$$ 3.911859e+01, 0.000000e+00
$$ 3.879359e+01, 0.000000e+00
$$ 3.846986e+01, 0.000000e+00
$$ 3.814744e+01, 0.000000e+00
$$ 3.782631e+01, 0.000000e+00
$$ 3.750651e+01, 0.000000e+00
$$ 3.718804e+01, 0.000000e+00
$$ 3.687091e+01, 0.000000e+00
$$ 3.655513e+01, 0.000000e+00
$$ 3.624072e+01, 0.000000e+00
$$ 3.592769e+01, 0.000000e+00
$$ 3.561605e+01, 0.000000e+00
$$ 3.530581e+01, 0.000000e+00
$$ 3.499698e+01, 0.000000e+00
$$ 3.468957e+01, 0.000000e+00
$$ 3.438359e+01, 0.000000e+00
$$ 3.407905e+01, 0.000000e+00
$$ 3.377596e+01, 0.000000e+00
$$ 3.347433e+01, 0.000000e+00
$$ 3.317417e+01, 0.000000e+00
$$ 3.287549e+01, 0.000000e+00
$$ 3.257829e+01, 0.000000e+00
$$ 3.228259e+01, 0.000000e+00
$$ 3.198840e+01, 0.000000e+00
$$ 3.169571e+01, 0.000000e+00
$$ 3.140454e+01, 0.000000e+00
$$ 3.111490e+01, 0.000000e+00
$$ 3.082679e+01, 0.000000e+00
$$ 3.054023e+01, 0.000000e+00
$$ 3.025521e+01, 0.000000e+00
$$ 2.997174e+01, 0.000000e+00
$$ 2.968983e+01, 0.000000e+00
$$ 2.940949e+01, 0.000000e+00
$$ 2.913072e+01, 0.000000e+00
$$ 2.885353e+01, 0.000000e+00
$$ 2.857792e+01, 0.000000e+00
$$ 2.830390e+01, 0.000000e+00
$$ 2.803147e+01, 0.000000e+00
$$ 2.776064e+01, 0.000000e+00
$$ 2.749141e+01, 0.000000e+00
$$ 2.722378e+01, 0.000000e+00
$$ 2.695777e+01, 0.000000e+00
$$ 2.669337e+01, 0.000000e+00
$$ 2.643059e+01, 0.000000e+00
$$ 2.616942e+01, 0.000000e+00
$$ 2.590989e+01, 0.000000e+00
$$ 2.565198e+01, 0.000000e+00
$$ 2.539570e+01, 0.000000e+00
$$ 2.514105e+01, 0.000000e+00
$$ 2.488803e+01, 0.000000e+00
$$ 2.463666e+01, 0.000000e+00
$$ 2.438692e+01, 0.000000e+00
$$ 2.413882e+01, 0.000000e+00
$$ 2.389236e+01, 0.000000e+00
$$ 2.364755e+01, 0.000000e+00
$$ 2.340438e+01, 0.000000e+00
$$ 2.316286e+01, 0.000000e+00
$$ 2.292299e+01, 0.000000e+00
$$ 2.268476e+01, 0.000000e+00
$$ 2.244817e+01, 0.000000e+00
$$ 2.221324e+01, 0.000000e+00
$$ 2.197995e+01, 0.000000e+00
$$ 2.174831e+01, 0.000000e+00
$$ 2.151832e+01, 0.000000e+00
$$ 2.128997e+01, 0.000000e+00
$$ 2.106327e+01, 0.000000e+00
$$ 2.083821e+01, 0.000000e+00
$$ 2.061480e+01, 0.000000e+00
$$ 2.039303e+01, 0.000000e+00
$$ 2.017290e+01, 0.000000e+00
$$ 1.995440e+01, 0.000000e+00
$$ 1.973755e+01, 0.000000e+00
$$ 1.952234e+01, 0.000000e+00
$$ 1.930875e+01, 0.000000e+00
$$ 1.909680e+01, 0.000000e+00
$$ 1.888648e+01, 0.000000e+00
$$ 1.867779e+01, 0.000000e+00
$$ 1.847071e+01, 0.000000e+00
$$ 1.826527e+01, 0.000000e+00
$$ 1.806143e+01, 0.000000e+00
$$ 1.785922e+01, 0.000000e+00
$$ 1.765862e+01, 0.000000e+00
$$ 1.745962e+01, 0.000000e+00
$$ 1.726223e+01, 0.000000e+00
$$ 1.706644e+01, 0.000000e+00
$$ 1.687225e+01, 0.000000e+00
$$ 1.667966e+01, 0.000000e+00
$$ 1.648865e+01, 0.000000e+00
$$ 1.629923e+01, 0.000000e+00
$$ 1.611139e+01, 0.000000e+00
$$ 1.592513e+01, 0.000000e+00
$$ 1.574044e+01, 0.000000e+00
$$ 1.555732e+01, 0.000000e+00
$$ 1.537576e+01, 0.000000e+00
$$ 1.519575e+01, 0.000000e+00
$$ 1.501731e+01, 0.000000e+00
$$ 1.484040e+01, 0.000000e+00
$$ 1.466505e+01, 0.000000e+00
$$ 1.449122e+01, 0.000000e+00
$$ 1.431893e+01, 0.000000e+00
$$ 1.414817e+01, 0.000000e+00
$$ 1.397893e+01, 0.000000e+00
$$ 1.381120e+01, 0.000000e+00
$$ 1.364498e+01, 0.000000e+00
$$ 1.348026e+01, 0.000000e+00
$$ 1.331704e+01, 0.000000e+00
$$ 1.315531e+01, 0.000000e+00
$$ 1.299506e+01, 0.000000e+00
$$ 1.283630e+01, 0.000000e+00
$$ 1.267900e+01, 0.000000e+00
$$ 1.252317e+01, 0.000000e+00
$$ 1.236880e+01, 0.000000e+00
$$ 1.221588e+01, 0.000000e+00
$$ 1.206441e+01, 0.000000e+00
$$ 1.191437e+01, 0.000000e+00
$$ 1.176576e+01, 0.000000e+00
$$ 1.161859e+01, 0.000000e+00
$$ 1.147282e+01, 0.000000e+00
$$ 1.132847e+01, 0.000000e+00
$$ 1.118552e+01, 0.000000e+00
$$ 1.104397e+01, 0.000000e+00
$$ 1.090381e+01, 0.000000e+00
$$ 1.076502e+01, 0.000000e+00
$$ 1.062762e+01, 0.000000e+00
$$ 1.049157e+01, 0.000000e+00
$$ 1.035689e+01, 0.000000e+00
$$ 1.022356e+01, 0.000000e+00
$$ 1.009157e+01, 0.000000e+00
$$ 9.960923e+00, 0.000000e+00
$$ 9.831601e+00, 0.000000e+00
$$ 9.703600e+00, 0.000000e+00
$$ 9.576911e+00, 0.000000e+00
$$ 9.451528e+00, 0.000000e+00
$$ 9.327442e+00, 0.000000e+00
$$ 9.204645e+00, 0.000000e+00
$$ 9.083130e+00, 0.000000e+00
$$ 8.962887e+00, 0.000000e+00
$$ 8.843911e+00, 0.000000e+00
$$ 8.726191e+00, 0.000000e+00
$$ 8.609720e+00, 0.000000e+00
$$ 8.494491e+00, 0.000000e+00
$$ 8.380494e+00, 0.000000e+00
$$ 8.267722e+00, 0.000000e+00
$$ 8.156166e+00, 0.000000e+00
$$ 8.045819e+00, 0.000000e+00
$$ 7.936671e+00, 0.000000e+00
$$ 7.828715e+00, 0.000000e+00
$$ 7.721943e+00, 0.000000e+00
$$ 7.616345e+00, 0.000000e+00
$$ 7.511914e+00, 0.000000e+00
$$ 7.408642e+00, 0.000000e+00
$$ 7.306520e+00, 0.000000e+00
$$ 7.205539e+00, 0.000000e+00
$$ 7.105692e+00, 0.000000e+00
$$ 7.006969e+00, 0.000000e+00
$$ 6.909363e+00, 0.000000e+00
$$ 6.812866e+00, 0.000000e+00
$$ 6.717468e+00, 0.000000e+00
$$ 6.623161e+00, 0.000000e+00
$$ 6.529937e+00, 0.000000e+00
$$ 6.437788e+00, 0.000000e+00
$$ 6.346705e+00, 0.000000e+00
$$ 6.256679e+00, 0.000000e+00
$$ 6.167703e+00, 0.000000e+00
$$ 6.079768e+00, 0.000000e+00
$$ 5.992865e+00, 0.000000e+00
$$ 5.906986e+00, 0.000000e+00
$$ 5.822123e+00, 0.000000e+00
$$ 5.738268e+00, 0.000000e+00
$$ 5.655411e+00, 0.000000e+00
$$ 5.573545e+00, 0.000000e+00
$$ 5.492661e+00, 0.000000e+00
$$ 5.412752e+00, 0.000000e+00
$$ 5.333808e+00, 0.000000e+00
$$ 5.255821e+00, 0.000000e+00
$$ 5.178783e+00, 0.000000e+00
$$ 5.102687e+00, 0.000000e+00
$$ 5.027522e+00, 0.000000e+00
$$ 4.953282e+00, 0.000000e+00
$$ 4.879959e+00, 0.000000e+00
$$ 4.807543e+00, 0.000000e+00
$$ 4.736027e+00, 0.000000e+00
$$ 4.665402e+00, 0.000000e+00
$$ 4.595662e+00, 0.000000e+00
$$ 4.526796e+00, 0.000000e+00
$$ 4.458798e+00, 0.000000e+00
$$ 4.391659e+00, 0.000000e+00
$$ 4.325371e+00, 0.000000e+00
$$ 4.259927e+00, 0.000000e+00
$$ 4.195318e+00, 0.000000e+00
$$ 4.131537e+00, 0.000000e+00
$$ 4.068575e+00, 0.000000e+00
$$ 4.006424e+00, 0.000000e+00
$$ 3.945077e+00, 0.000000e+00
$$ 3.884526e+00, 0.000000e+00
$$ 3.824764e+00, 0.000000e+00
$$ 3.765782e+00, 0.000000e+00
$$ 3.707572e+00, 0.000000e+00
$$ 3.650128e+00, 0.000000e+00
$$ 3.593441e+00, 0.000000e+00
$$ 3.537503e+00, 0.000000e+00
$$ 3.482308e+00, 0.000000e+00
$$ 3.427848e+00, 0.000000e+00
$$ 3.374114e+00, 0.000000e+00
$$ 3.321101e+00, 0.000000e+00
$$ 3.268799e+00, 0.000000e+00
$$ 3.217203e+00, 0.000000e+00
$$ 3.166304e+00, 0.000000e+00
$$ 3.116095e+00, 0.000000e+00
$$ 3.066570e+00, 0.000000e+00
$$ 3.017720e+00, 0.000000e+00
$$ 2.969538e+00, 0.000000e+00
$$ 2.922018e+00, 0.000000e+00
$$ 2.875152e+00, 0.000000e+00
$$ 2.828934e+00, 0.000000e+00
$$ 2.783356e+00, 0.000000e+00
$$ 2.738411e+00, 0.000000e+00
$$ 2.694092e+00, 0.000000e+00
$$ 2.650393e+00, 0.000000e+00
$$ 2.607306e+00, 0.000000e+00
$$ 2.564825e+00, 0.000000e+00
$$ 2.522943e+00, 0.000000e+00
$$ 2.481653e+00, 0.000000e+00
$$ 2.440949e+00, 0.000000e+00
$$ 2.400824e+00, 0.000000e+00
$$ 2.361271e+00, 0.000000e+00
$$ 2.322285e+00, 0.000000e+00
$$ 2.283857e+00, 0.000000e+00
$$ 2.245983e+00, 0.000000e+00
$$ 2.208655e+00, 0.000000e+00
$$ 2.171868e+00, 0.000000e+00
$$ 2.135614e+00, 0.000000e+00
$$ 2.099888e+00, 0.000000e+00
$$ 2.064683e+00, 0.000000e+00
$$ 2.029994e+00, 0.000000e+00
$$ 1.995813e+00, 0.000000e+00
$$ 1.962136e+00, 0.000000e+00
$$ 1.928956e+00, 0.000000e+00
$$ 1.896267e+00, 0.000000e+00
$$ 1.864063e+00, 0.000000e+00
$$ 1.832339e+00, 0.000000e+00
$$ 1.801088e+00, 0.000000e+00
$$ 1.770304e+00, 0.000000e+00
$$ 1.739982e+00, 0.000000e+00
$$ 1.710117e+00, 0.000000e+00
$$ 1.680702e+00, 0.000000e+00
$$ 1.651732e+00, 0.000000e+00
$$ 1.623202e+00, 0.000000e+00
$$ 1.595105e+00, 0.000000e+00
$$ 1.567437e+00, 0.000000e+00
$$ 1.540192e+00, 0.000000e+00
$$ 1.513365e+00, 0.000000e+00
$$ 1.486950e+00, 0.000000e+00
$$ 1.460942e+00, 0.000000e+00
$$ 1.435337e+00, 0.000000e+00
$$ 1.410127e+00, 0.000000e+00
$$ 1.385310e+00, 0.000000e+00
$$ 1.360879e+00, 0.000000e+00
$$ 1.336830e+00, 0.000000e+00
$$ 1.313157e+00, 0.000000e+00
$$ 1.289855e+00, 0.000000e+00
$$ 1.266921e+00, 0.000000e+00
$$ 1.244348e+00, 0.000000e+00
$$ 1.222132e+00, 0.000000e+00
$$ 1.200269e+00, 0.000000e+00
$$ 1.178753e+00, 0.000000e+00
$$ 1.157580e+00, 0.000000e+00
$$ 1.136746e+00, 0.000000e+00
$$ 1.116245e+00, 0.000000e+00
$$ 1.096073e+00, 0.000000e+00
$$ 1.076227e+00, 0.000000e+00
$$ 1.056700e+00, 0.000000e+00
$$ 1.037490e+00, 0.000000e+00
$$ 1.018591e+00, 0.000000e+00
$$ 1.000000e+00, 0.000000e+00
$$ ##END= 
##$RELAX= 
##$BRUKER FILE EXP=pulseprogram
$$ # 1 "/opt/topspin/exp/stan/nmr/lists/pp/zgdc30"
$$ ;zgdc30
$$ ;avance-version (07/04/03)
$$ ;1D sequence with decoupling
$$ ;using 30 degree flip angle
$$ ;
$$ ;$CLASS=HighRes
$$ ;$DIM=1D
$$ ;$TYPE=
$$ ;$SUBTYPE=
$$ ;$COMMENT=
$$ 
$$ 
$$ # 1 "/opt/topspin/exp/stan/nmr/lists/pp/Avance.incl" 1
$$ ;Avance3.incl
$$ ;   for AV III
$$ ;
$$ ;avance-version (07/12/14)
$$ ;
$$ ;$CLASS=HighRes Incl
$$ ;$COMMENT=
$$ 
$$ 
$$ 
$$ 
$$ 
$$ 
$$ 
$$ 
$$ 
$$ 
$$ 
$$ 
$$ 
$$ 
$$ 
$$ 
$$ 
$$ 
$$ 
$$ 
$$ 
$$ 
$$ 
$$ 
$$ 
$$ 
$$ 
$$ 
$$ 
$$ 
$$ 
$$ 
$$ 
$$ 
$$ 
$$ 
$$ 
$$ 
$$ 
$$ 
$$ 
$$ 
$$ 
$$ 
$$ 
$$ 
$$ 
$$ 
$$ 
$$ 
$$ 
$$ 
$$ 
$$ 
$$ 
$$ 
$$ 
$$ 
$$ 
$$ 
$$ 
$$ 
$$ 
$$ 
$$ 
$$ 
$$ 
$$ 
$$ 
$$ 
$$ 
$$ 
$$ 
$$ 
$$ 
$$ 
$$ 
$$ 
$$ 
$$ 
$$ 
$$ 
$$ 
$$ 
$$ 
$$ 
$$ 
$$ 
$$ 
$$ 
$$ 
$$ 
$$ 
$$ 
$$ 
$$ 
$$ 
$$ 
$$ 
$$ 
$$ 
$$ 
$$ 
$$ 
$$ 
$$ 
$$ 
$$ 
$$ 
$$ 
$$ 
$$ 
$$ 
$$ 
$$ 
$$ 
$$ 
$$ 
$$ 
$$ 
$$ 
$$ 
$$ 
$$ 
$$ 
$$ 
$$ 
$$ 
$$ 
$$ 
$$ 
$$ 
$$ 
$$ 
$$ 
$$ 
$$ 
$$ 
$$ 
$$ 
$$ 
$$ 
$$ 
$$ 
$$ 
$$ 
$$ 
$$ 
$$ 
$$ 
$$ 
$$ 
$$ 
$$ 
$$ 
$$ 
$$ 
$$ ;$Id: Avance3.incl,v 1.6.2.2 2007/12/14 16:06:46 ber Exp $
$$ # 13 "/opt/topspin/exp/stan/nmr/lists/pp/zgdc30" 2
$$ 
$$ 
$$ 
$$ "d11=30m"
$$ 
$$ 
$$ "acqt0=-p1*0.66/3.1416"
$$ 
$$ 
$$ # 1 "mc_line 22 file /opt/topspin/exp/stan/nmr/lists/pp/zgdc30 expanding definition part of mc command before ze"
$$ define delay MCWRK
$$ define delay MCREST
$$ "MCWRK = 0.333333*30m"
$$ "MCREST = 30m - 30m"
$$     dccorr
$$ # 22 "/opt/topspin/exp/stan/nmr/lists/pp/zgdc30"
$$ 1 ze
$$ # 1 "mc_line 22 file /opt/topspin/exp/stan/nmr/lists/pp/zgdc30 expanding definition of mc command after ze"
$$ # 23 "/opt/topspin/exp/stan/nmr/lists/pp/zgdc30"
$$   d11 pl12:f2 
$$ # 1 "mc_line 24 file /opt/topspin/exp/stan/nmr/lists/pp/zgdc30 expanding start label for mc command"
$$ 2 MCWRK  * 2 do:f2
$$ LBLF0, MCWRK 
$$   MCREST
$$ # 25 "/opt/topspin/exp/stan/nmr/lists/pp/zgdc30"
$$   d11 cpd2:f2
$$   d1
$$   p1*0.33 ph1
$$   go=2 ph31
$$ # 1 "mc_line 29 file /opt/topspin/exp/stan/nmr/lists/pp/zgdc30 expanding mc command in line"
$$   MCWRK do:f2 wr #0
$$   MCWRK zd 
$$   lo to LBLF0 times td0
$$ 
$$   MCWRK
$$ # 30 "/opt/topspin/exp/stan/nmr/lists/pp/zgdc30"
$$ exit
$$ 
$$ 
$$ ph1=0 2 2 0 1 3 3 1
$$ ph31=0 2 2 0 1 3 3 1
$$ 
$$ 
$$ ;pl1 : f1 channel - power level for pulse (default)
$$ ;pl12: f2 channel - power level for CPD/BB decoupling
$$ ;p1 : f1 channel -  90 degree high power pulse
$$ ;d1 : relaxation delay; 1-5 * T1
$$ ;d11: delay for disk I/O                             [30 msec]
$$ ;NS: 1 * n, total number of scans: NS * TD0
$$ ;cpd2: decoupling according to sequence defined by cpdprg2
$$ ;pcpd2: f2 channel - 90 degree pulse for decoupling sequence
$$ 
$$ 
$$ 
$$ ;$Id: zgdc30,v 1.10 2007/04/11 13:34:31 ber Exp $
##$RELAX= 
##$BRUKER FILE EXP=shimvalues
$$ # Fri Dec  2 14:29:26 2016
$$ #$$PROBEID=34
$$ #$$PROBEINFO=5 mm BBO BB-1H/D Z-GRD Z8478/0071
$$ #$$PICSINFO=Z8478_0071_34.par
$$ #
$$ # Active Shim Gradients
$$ #
$$ Z           		-11534          
$$ Z2          		-1072           
$$ Z3          		6916            
$$ Z4          		-2944           
$$ Z5          		1935            
$$ Z6          		-843            
$$ X           		1219            
$$ XZ          		578             
$$ XZ2         		9238            
$$ XZ3         		633             
$$ XZ4         		1136            
$$ XZ5         		-6350           
$$ Y           		1280            
$$ YZ          		663             
$$ YZ2         		190             
$$ YZ3         		-1621           
$$ YZ4         		-25             
$$ YZ5         		-1120           
$$ XY          		296             
$$ XYZ         		7419            
$$ XYZ2        		2530            
$$ XYZ3        		-1745           
$$ XYZ4        		3130            
$$ XYZ5        		6388            
$$ (X2-Y2)     		-228            
$$ (X2-Y2)Z    		5640            
$$ (X2-Y2)Z2   		-1165           
$$ (X2-Y2)Z3   		4238            
$$ (X2-Y2)Z4   		4996            
$$ (X2-Y2)Z5   		1510            
$$ X3          		795             
$$ X3Z         		2675            
$$ Y3          		235             
$$ Y3Z         		5139            
$$ #
$$ # Lock Parameter
$$ #
$$ LOCKPHASE		95.000  
$$ LOCKPOWER		-30.000 
$$ LOCKGAIN		104.147 
$$ LOCKDC		-75.000 
$$ LOCKSHIFT		2.490   
$$ FIELD		5606.547
$$ LOOPGAIN		5.000   
$$ LOOPTIME		0.250   
$$ LOOPFILTER		200.000 
$$ #
$$ IEEE64_VERSION_CODE 1
$$ #
$$ # Shim currents 
$$ #
$$ SHIM_SETTING [1 ]  -5594.05389136  
$$ SHIM_SETTING [2 ]  -1072.12135855  
$$ SHIM_SETTING [3 ]  6916.36641451   
$$ SHIM_SETTING [4 ]  0.00000000      
$$ SHIM_SETTING [5 ]  -2944.46431505  
$$ SHIM_SETTING [6 ]  1934.88231310   
$$ SHIM_SETTING [7 ]  -843.00000000   
$$ SHIM_SETTING [8 ]  0.00000000      
$$ SHIM_SETTING [9 ]  0.00000000      
$$ SHIM_SETTING [10]  -1880.00000000  
$$ SHIM_SETTING [11]  3470.00000000   
$$ SHIM_SETTING [12]  -4904.00000000  
$$ SHIM_SETTING [13]  5374.00000000   
$$ SHIM_SETTING [14]  0.00000000      
$$ SHIM_SETTING [15]  9975.96044685   
$$ SHIM_SETTING [16]  12083.37020487  
$$ SHIM_SETTING [17]  -7657.15512848  
$$ SHIM_SETTING [18]  -4107.95234555  
$$ SHIM_SETTING [19]  -7156.58111301  
$$ SHIM_SETTING [20]  4443.92556161   
$$ SHIM_SETTING [21]  10221.98930466  
$$ SHIM_SETTING [22]  -8209.01595853  
$$ SHIM_SETTING [23]  -2569.32694094  
$$ SHIM_SETTING [24]  -6172.42909478  
$$ SHIM_SETTING [25]  10819.27443599  
$$ SHIM_SETTING [26]  -3197.59177302  
$$ SHIM_SETTING [27]  0.00000000      
$$ SHIM_SETTING [28]  139.29739577    
$$ SHIM_SETTING [29]  8011.71976637   
$$ SHIM_SETTING [30]  -4590.29123364  
$$ SHIM_SETTING [31]  2870.68983379   
$$ SHIM_SETTING [32]  2522.17929829   
$$ SHIM_SETTING [33]  12187.00862412  
$$ SHIM_SETTING [34]  -3838.32437588  
$$ SHIM_SETTING [35]  3784.90534612   
$$ SHIM_SETTING [36]  -13158.31665388 
$$ SHIM_SETTING [37]  2676.96534695   
$$ SHIM_SETTING [38]  -1619.37607715  
$$ SHIM_SETTING [39]  -506.07728411   
$$ SHIM_SETTING [40]  0.00000000      
##$RELAX= 
##$BRUKER FILE EXP=uxnmr.par
$$ ##TITLE= Parameter file, TOPSPIN		Version 2.1
$$ ##JCAMPDX= 5.0
$$ ##DATATYPE= Parameter Values
$$ ##NPOINTS= 531	$$ modification sequence number
$$ ##ORIGIN= Bruker BioSpin GmbH
$$ ##OWNER= nmrsu
$$ $$ 2016-10-18 12:46:49.163 +0200  NMR_mess@av600.nmr.uni-koeln.de
$$ $$ /opt/topspin/conf/instr/spect/uxnmr.par
$$ $$ process /opt/topspin/prog/mod/confamp
$$ ##$ACB= 0
$$ ##$ACBTAT= (0..15)
0 88 72 88 50 0 0 0 0 0 0 0 0 0 0 0
$$ ##$ACBTBA= (0..15)
0 0 0 0 0 0 0 0 0 0 0 0 0 0 0 0
$$ ##$ACBTBLK= (0..15)
0 1 1 1 0 0 0 0 0 0 0 0 0 0 0 0
$$ ##$ACBTCTL= (0..15)
0 6 6 6 6 0 0 0 0 0 0 0 0 0 0 0
$$ ##$ACBTDI= (0..15)
0 -1779670023 -1779670024 -1779670024 -1779670024 0 0 0 0 0 0 0 0 0 0 0
$$ ##$ACBTDM= (0..15)
0 10 25 10 10 0 0 0 0 0 0 0 0 0 0 0
$$ ##$ACBTFHI= (0..15)
0 365 600 365 92 0 0 0 0 0 0 0 0 0 0 0
$$ ##$ACBTFL= (0..15)
0 248 248 248 88 0 0 0 0 0 0 0 0 0 0 0
$$ ##$ACBTFLO= (0..15)
0 6 180 6 30 0 0 0 0 0 0 0 0 0 0 0
$$ ##$ACBTINP= (0..15)
0 3 2 1 9 0 0 0 0 0 0 0 0 0 0 0
$$ ##$ACBTOUT= (0..15)
0 1 1 2 3 0 0 0 0 0 0 0 0 0 0 0
$$ ##$ACBTPO= (0..15)
0 300000 100000 300000 150000 0 0 0 0 0 0 0 0 0 0 0
$$ ##$ACBTPW= (0..15)
0 100 100 100 5 0 0 0 0 0 0 0 0 0 0 0
$$ ##$ACBTSB= (0..15)
0 0 0 0 0 0 0 0 0 0 0 0 0 0 0 0
$$ ##$ACBTY= <no>
$$ ##$AQSBDCH= (0..95)
0 0 0 0 0 0 0 0 255 255 255 255 255 255 255 255 255 255 255 255 255 255
255 255 255 255 255 255 255 255 255 255 255 255 255 255 255 255 255 255
255 255 255 255 255 255 255 255 255 255 255 255 255 255 255 255 255 255
255 255 255 255 255 255 255 255 255 255 255 255 255 255 255 255 255 255
255 255 255 255 255 255 255 255 255 255 255 255 255 255 255 255 255 255
255 255
$$ ##$AQSBDHW= (0..95)
3 1 8 8 8 0 0 0 255 255 255 255 255 255 255 255 255 255 255 255 255 255
255 255 255 255 255 255 255 255 255 255 255 255 255 255 255 255 255 255
255 255 255 255 255 255 255 255 255 255 255 255 255 255 255 255 255 255
255 255 255 255 255 255 255 255 255 255 255 255 255 255 255 255 255 255
255 255 255 255 255 255 255 255 255 255 255 255 255 255 255 255 255 255
255 255
$$ ##$AQSBDID= (0..95)
82 88 83 83 83 80 66 66 255 255 255 255 255 255 255 255 255 255 255 255
255 255 255 255 255 255 255 255 255 255 255 255 255 255 255 255 255 255
255 255 255 255 255 255 255 255 255 255 255 255 255 255 255 255 255 255
255 255 255 255 255 255 255 255 255 255 255 255 255 255 255 255 255 255
255 255 255 255 255 255 255 255 255 255 255 255 255 255 255 255 255 255
255 255 255 255
$$ ##$AQSBDNO= (0..95)
1 1 1 2 3 1 1 1 255 255 255 255 255 255 255 255 255 255 255 255 255 255
255 255 255 255 255 255 255 255 255 255 255 255 255 255 255 255 255 255
255 255 255 255 255 255 255 255 255 255 255 255 255 255 255 255 255 255
255 255 255 255 255 255 255 255 255 255 255 255 255 255 255 255 255 255
255 255 255 255 255 255 255 255 255 255 255 255 255 255 255 255 255 255
255 255
$$ ##$AQSBDSL= (0..95)
2 3 4 5 6 21 23 25 255 255 255 255 255 255 255 255 255 255 255 255 255
255 255 255 255 255 255 255 255 255 255 255 255 255 255 255 255 255 255
255 255 255 255 255 255 255 255 255 255 255 255 255 255 255 255 255 255
255 255 255 255 255 255 255 255 255 255 255 255 255 255 255 255 255 255
255 255 255 255 255 255 255 255 255 255 255 255 255 255 255 255 255 255
255 255 255
$$ ##$AQSBDTY= (0..95)
66 192 25 25 25 207 198 7 255 255 255 255 255 255 255 255 255 255 255 255
255 255 255 255 255 255 255 255 255 255 255 255 255 255 255 255 255 255
255 255 255 255 255 255 255 255 255 255 255 255 255 255 255 255 255 255
255 255 255 255 255 255 255 255 255 255 255 255 255 255 255 255 255 255
255 255 255 255 255 255 255 255 255 255 255 255 255 255 255 255 255 255
255 255 255 255
$$ ##$AQSBUAD= (0..95)
16 52 36 37 38 33 32 32 255 255 255 255 255 255 255 255 255 255 255 255
255 255 255 255 255 255 255 255 255 255 255 255 255 255 255 255 255 255
255 255 255 255 255 255 255 255 255 255 255 255 255 255 255 255 255 255
255 255 255 255 255 255 255 255 255 255 255 255 255 255 255 255 255 255
255 255 255 255 255 255 255 255 255 255 255 255 255 255 255 255 255 255
255 255 255 255
$$ ##$AQSECL= (0..95)
3 1 2 2 2 0 1 255 255 255 255 255 255 255 255 255 255 255 255 255 255 255
255 255 255 255 255 255 255 255 255 255 255 255 255 255 255 255 255 255
255 255 255 255 255 255 255 255 255 255 255 255 255 255 255 255 255 255
255 255 255 255 255 255 255 255 255 255 255 255 255 255 255 255 255 255
255 255 255 255 255 255 255 255 255 255 255 255 255 255 255 255 255 255
255 255
$$ ##$AQSECLS= (0..95)
0 0 0 0 0 0 2 255 255 255 255 255 255 255 255 255 255 255 255 255 255 255
255 255 255 255 255 255 255 255 255 255 255 255 255 255 255 255 255 255
255 255 255 255 255 255 255 255 255 255 255 255 255 255 255 255 255 255
255 255 255 255 255 255 255 255 255 255 255 255 255 255 255 255 255 255
255 255 255 255 255 255 255 255 255 255 255 255 255 255 255 255 255 255
255 255
$$ ##$AQSSPLT= no
$$ ##$ATT19F= (0..1)
0 0
$$ ##$ATT1H= (0..1)
0 0
$$ ##$ATT3H= (0..1)
0 0
$$ ##$ATTX= (0..1)
0 0
$$ ##$ATTY= (0..1)
0 0
$$ ##$ATTZ= (0..1)
0 0
$$ ##$BACSAIR= yes
$$ ##$BACSCAP= 0
$$ ##$BACSDEL= 10
$$ ##$BACSFCM= no
$$ ##$BACSOPT= <>
$$ ##$BACSTY= <no>
$$ ##$BARPTY= <no>
$$ ##$BFREQ= 600.2
$$ ##$BGAETH1= <no>
$$ ##$BGAETH2= <no>
$$ ##$BGAETH3= <no>
$$ ##$BGAETH4= <no>
$$ ##$BGAETH5= <no>
$$ ##$BGAETH6= <no>
$$ ##$BGAETH7= <no>
$$ ##$BGAETH8= <no>
$$ ##$BIRDS= yes
$$ ##$BMPC= 0
$$ ##$BMPCTY= <no>
$$ ##$BPSUTY= <no>
$$ ##$BSMS= 2
$$ ##$BSMSETH= <149.236.99.20>
$$ ##$BSMSTY= <no>
$$ ##$CFASMOD= (0..7)
1 1 1 1 1 1 1 1
$$ ##$CFASMUL= (0..7)
1 1 1 1 1 1 1 1
$$ ##$CNFTXDR= (0..7)
6 6 6 0 0 0 0 0
$$ ##$COMDIG2= 0
$$ ##$CPDBTY= <no>
$$ ##$CRCOTY= <no>
$$ ##$CSW1= (0..31)
3 0 0 2 2 2 9 0 0 0 0 0 0 0 0 0 0 0 0 0 0 0 0 0 0 0 0 0 0 0 0 0
$$ ##$CSW2= (0..31)
0 0 0 1 1 1 0 0 0 0 0 0 0 0 0 0 0 0 0 0 0 0 0 0 0 0 0 0 0 0 0 0
$$ ##$CSWNUM= (0..7)
3 4 0 0 0 0 0 0
$$ ##$DATSTAT= no
$$ ##$DIGI140= (0..7)
0 0 0 0 0 0 0 0
$$ ##$DIGIB12= (0..7)
0 0 0 0 0 0 0 0
$$ ##$DIGIB16= (0..7)
0 0 0 0 0 0 0 0
$$ ##$DIGIFA= (0..7)
0 0 0 0 0 0 0 0
$$ ##$DIGIHA= (0..7)
0 0 0 0 0 0 0 0
$$ ##$DIGIHAF= (0..7)
0 0 0 0 0 0 0 0
$$ ##$DIGIHRD= (0..7)
0 0 0 0 0 0 0 0
$$ ##$DIGIIA= (0..7)
0 0 0 0 0 0 0 0
$$ ##$DIGIO16= (0..7)
0 0 0 0 0 0 0 0
$$ ##$DIGISA= (0..7)
0 0 0 0 0 0 0 0
$$ ##$DIGISAF= (0..7)
0 0 0 0 0 0 0 0
$$ ##$DIGISL= (0..7)
0 0 0 0 0 0 0 0
$$ ##$DIGITYI= (0..7)
0 0 0 0 0 0 0 0
$$ ##$DIGITYP= (0..7)
0 0 0 0 0 0 0 0
$$ ##$DIGITZ= 0
$$ ##$DRU= yes
$$ ##$DRUETH01= <149.236.99.89>
$$ ##$DRUETH02= <no>
$$ ##$DRUETH03= <no>
$$ ##$DRUETH04= <no>
$$ ##$DRUETH05= <no>
$$ ##$DRUETH06= <no>
$$ ##$DRUETH07= <no>
$$ ##$DRUETH08= <no>
$$ ##$DRUETH09= <no>
$$ ##$DRUETH10= <no>
$$ ##$DRUETH11= <no>
$$ ##$DRUETH12= <no>
$$ ##$DRUETH13= <no>
$$ ##$DRUETH14= <no>
$$ ##$DRUETH15= <no>
$$ ##$DRUETH16= <no>
$$ ##$DRUETH17= <no>
$$ ##$DRUETH18= <no>
$$ ##$DRUETH19= <no>
$$ ##$DRUETH20= <no>
$$ ##$DRUETH21= <no>
$$ ##$DRUETH22= <no>
$$ ##$DRUETH23= <no>
$$ ##$DRUETH24= <no>
$$ ##$DRUETH25= <no>
$$ ##$DRUETH26= <no>
$$ ##$DRUETH27= <no>
$$ ##$DRUETH28= <no>
$$ ##$DRUETH29= <no>
$$ ##$DRUETH30= <no>
$$ ##$DRUETH31= <no>
$$ ##$DRUETH32= <no>
$$ ##$FCUMEM= (0..7)
16777208 16777208 16777208 0 0 0 0 0
$$ ##$FCUPAL= (0..7)
0 0 0 0 0 0 0 0
$$ ##$FGSVTY= <no>
$$ ##$FQMIX= 0
$$ ##$FUNCMOD= <>
$$ ##$GCUTYPE= 10
$$ ##$GPREDEL= 1
$$ ##$GPSCUTY= <no>
$$ ##$GRADRES= 5
$$ ##$GTUTY= <no>
$$ ##$HFAC= 3
$$ ##$HPCU= 0
$$ ##$HPCUTY= <no>
$$ ##$HPTXLP= (0..3)
-1 -1 -1 -1
$$ ##$HPTXPI= (0..3)
0 0 0 0
$$ ##$HPTXPO= (0..3)
0 0 0 0
$$ ##$HPTXTY= (0..3)
0 0 0 0
$$ ##$IF451= 0
$$ ##$IFREQ= 1
$$ ##$INTFPR= 0
$$ ##$IPSOETH= <149.236.99.251>
$$ ##$LOCKTY= <no>
$$ ##$LOCSWID= 0
$$ ##$LOCSWIF= 0
$$ ##$M2FAC= 0
$$ ##$MAS= 0
$$ ##$MASETIME= 10
$$ ##$MASITIME= 10
$$ ##$MASTY= <no>
$$ ##$MAS_CT= 0
$$ ##$MAS_SG= 0
$$ ##$MAS_TO= 0
$$ ##$MEMPRM= 0
$$ ##$MHFAC= 0
$$ ##$MXFAC= 0
$$ ##$NAMPD1= <1H LNA>
$$ ##$NAMPD10= <>
$$ ##$NAMPD11= <>
$$ ##$NAMPD12= <>
$$ ##$NAMPD13= <>
$$ ##$NAMPD14= <>
$$ ##$NAMPD15= <>
$$ ##$NAMPD16= <>
$$ ##$NAMPD2= <XBB19F 2HS>
$$ ##$NAMPD3= <XBB19F 2HP>
$$ ##$NAMPD4= <2H>
$$ ##$NAMPD5= <>
$$ ##$NAMPD6= <>
$$ ##$NAMPD7= <>
$$ ##$NAMPD8= <>
$$ ##$NAMPD9= <>
$$ ##$NFCU= 3
$$ ##$NMRCH= 2
$$ ##$NMRMEM= 16384
$$ ##$NRCU= 1
$$ ##$NROUT= 0
$$ ##$NSGU= 3
$$ ##$PAMPF1= (0..15)
75 24 64 64 96 0 0 0 0 0 0 0 0 0 0 0
$$ ##$PAMPF2= (0..15)
0 0 0 0 0 0 0 0 0 0 0 0 0 0 0 0
$$ ##$PAMPF3= (0..15)
0 0 0 0 0 0 0 0 0 0 0 0 0 0 0 0
$$ ##$PAMPF4= (0..15)
0 0 0 0 0 0 0 0 0 0 0 0 0 0 0 0
$$ ##$PAMPF5= (0..15)
0 0 0 0 0 0 0 0 0 0 0 0 0 0 0 0
$$ ##$PAMPF6= (0..15)
0 0 0 0 0 0 0 0 0 0 0 0 0 0 0 0
$$ ##$PAMPF7= (0..15)
0 0 0 0 0 0 0 0 0 0 0 0 0 0 0 0
$$ ##$PAMPF8= (0..15)
0 0 0 0 0 0 0 0 0 0 0 0 0 0 0 0
$$ ##$PH4= 0
$$ ##$PHF4TY= <no>
$$ ##$POWCHK= no
$$ ##$PRAMD1= (0..7)
2 0 0 536870912 0 0 0 0
$$ ##$PRAMD10= (0..7)
0 0 0 0 0 0 0 0
$$ ##$PRAMD11= (0..7)
0 0 0 0 0 0 0 0
$$ ##$PRAMD12= (0..7)
0 0 0 0 0 0 0 0
$$ ##$PRAMD13= (0..7)
0 0 0 0 0 0 0 0
$$ ##$PRAMD14= (0..7)
0 0 0 0 0 0 0 0
$$ ##$PRAMD15= (0..7)
0 0 0 0 0 0 0 0
$$ ##$PRAMD16= (0..7)
0 0 0 0 0 0 0 0
$$ ##$PRAMD17= (0..7)
0 0 0 0 0 0 0 0
$$ ##$PRAMD18= (0..7)
0 0 0 0 0 0 0 0
$$ ##$PRAMD19= (0..7)
0 0 0 0 0 0 0 0
$$ ##$PRAMD2= (0..7)
2147483644 2131230719 2147483647 671088639 0 0 0 0
$$ ##$PRAMD20= (0..7)
0 0 0 0 0 0 0 0
$$ ##$PRAMD21= (0..7)
0 0 0 0 0 0 0 0
$$ ##$PRAMD3= (0..7)
2147483644 2147483647 2147483647 671088639 0 0 0 0
$$ ##$PRAMD4= (0..7)
0 1048576 0 536870912 0 1048576 0 536870912
$$ ##$PRAMD5= (0..7)
0 0 0 0 0 0 0 0
$$ ##$PRAMD6= (0..7)
0 0 0 0 0 0 0 0
$$ ##$PRAMD7= (0..7)
0 0 0 0 0 0 0 0
$$ ##$PRAMD8= (0..7)
0 0 0 0 0 0 0 0
$$ ##$PRAMD9= (0..7)
0 0 0 0 0 0 0 0
$$ ##$PRAMLED= (0..1)
15 15
$$ ##$PRAMP1= <tty10>
$$ ##$PRAMP2= <no>
$$ ##$PRAMP3= <no>
$$ ##$PRAMP4= <no>
$$ ##$PRAMP5= <no>
$$ ##$PRAMP6= <no>
$$ ##$PRAMP7= <no>
$$ ##$PRAMP8= <no>
$$ ##$PRAMPTP= 1
$$ ##$PREPTY= <no>
$$ ##$PRESHLD= 0
$$ ##$PTS160= -1
$$ ##$PTSA2X= (0..7)
0 0 0 0 0 0 0 0
$$ ##$PTSF2X= (0..7)
0 0 0 0 0 0 0 0
$$ ##$PTSFMX= (0..7)
643.52499 643.52499 643.52499 0 0 0 0 0
$$ ##$PULCHK= no
$$ ##$RCUCDS= (0..7)
0 0 0 0 0 0 0 0
$$ ##$RCUCFS= (0..7)
0 0 0 0 0 0 0 0
$$ ##$RCUCSS= (0..7)
0 0 0 0 0 0 0 0
$$ ##$RCUI2C1= (0..7)
0 0 0 0 0 0 0 0
$$ ##$RCUI2C2= (0..7)
0 0 0 0 0 0 0 0
$$ ##$RCUI2C3= (0..7)
0 0 0 0 0 0 0 0
$$ ##$RCUI2C4= (0..7)
0 0 0 0 0 0 0 0
$$ ##$RCUI2C5= (0..7)
0 0 0 0 0 0 0 0
$$ ##$RCUI2C6= (0..7)
0 0 0 0 0 0 0 0
$$ ##$RCUI2C7= (0..7)
0 0 0 0 0 0 0 0
$$ ##$RCUI2C8= (0..7)
0 0 0 0 0 0 0 0
$$ ##$RDCU= 0
$$ ##$RFSVTY= <no>
$$ ##$RGTYPE= (0..31)
9 0 0 0 0 0 0 0 0 0 0 0 0 0 0 0 0 0 0 0 0 0 0 0 0 0 0 0 0 0 0 0
$$ ##$RG_max= (0..31)
46300 0 0 0 0 0 0 0 0 0 0 0 0 0 0 0 0 0 0 0 0 0 0 0 0 0 0 0 0 0 0 0
$$ ##$RG_min= (0..31)
0.25 0 0 0 0 0 0 0 0 0 0 0 0 0 0 0 0 0 0 0 0 0 0 0 0 0 0 0 0 0 0 0
$$ ##$RG_tab1= (0..255)
0.25 0.28 0.32 0.35 0.4 0.44 0.5 0.56 0.64 0.7 0.8 0.89 1 1.12 1.28 1.4
1.6 1.78 2 2.25 2.56 2.8 3.2 3.56 4 4.5 5 5.6 6.35 7.12 8 9 10 11.3 12.7
14.2 16 18 20.2 22.6 25.4 28.5 32 36 40.3 45.2 50.8 57 64 71.8 80.6 90.5
101 114 128 144 161 181 203 228 256 287 322 362 406 456 512 575 645 724
812 912 1030 1150 1290 1440 1620 1820 2050 -1 -1 -1 -1 -1 -1 -1 -1 -1 -1
-1 -1 -1 -1 -1 -1 -1 -1 -1 -1 -1 -1 -1 -1 -1 -1 -1 -1 -1 -1 -1 -1 -1 -1
-1 -1 -1 -1 -1 -1 -1 -1 -1 -1 -1 -1 -1 -1 -1 -1 -1 -1 -1 -1 -1 -1 -1 -1
-1 -1 -1 -1 -1 -1 -1 -1 -1 -1 -1 -1 -1 -1 -1 -1 -1 -1 -1 -1 -1 -1 -1 -1
-1 -1 -1 -1 -1 -1 -1 -1 -1 -1 -1 -1 -1 -1 -1 -1 -1 -1 -1 -1 -1 -1 -1 -1
-1 -1 -1 -1 -1 -1 -1 -1 -1 -1 -1 -1 -1 -1 -1 -1 -1 -1 -1 -1 -1 -1 -1 -1
-1 -1 -1 -1 -1 -1 -1 -1 -1 -1 -1 -1 -1 -1 -1 -1 -1 -1 -1 -1 -1 -1 -1 -1
-1 -1 -1 -1 -1 -1 -1 -1 -1 -1 -1 -1 -1 -1 -1 -1 -1 -1 -1 -1 -1 -1 -1
$$ ##$RG_tab2= (0..255)
-1 -1 -1 -1 -1 -1 -1 -1 -1 -1 -1 -1 -1 -1 -1 -1 -1 -1 -1 -1 -1 -1 -1 -1
-1 -1 -1 -1 -1 -1 -1 -1 -1 -1 -1 -1 -1 -1 -1 -1 -1 -1 -1 -1 -1 -1 -1 -1
-1 -1 -1 -1 -1 -1 -1 -1 -1 -1 -1 -1 -1 -1 -1 -1 -1 -1 -1 -1 -1 -1 -1 -1
-1 -1 -1 -1 -1 -1 -1 -1 -1 -1 -1 -1 -1 -1 -1 -1 -1 -1 -1 -1 -1 -1 -1 -1
-1 -1 -1 -1 -1 -1 -1 -1 -1 -1 -1 -1 -1 -1 -1 -1 -1 -1 -1 -1 -1 -1 -1 -1
-1 -1 -1 -1 -1 -1 -1 -1 -1 -1 -1 -1 -1 -1 -1 -1 -1 -1 -1 -1 -1 -1 -1 -1
-1 -1 -1 -1 -1 -1 -1 -1 -1 -1 -1 -1 -1 -1 -1 -1 -1 -1 -1 -1 -1 -1 -1 -1
-1 -1 -1 -1 -1 -1 -1 -1 -1 -1 -1 -1 -1 -1 -1 -1 -1 -1 -1 -1 -1 -1 -1 -1
-1 -1 -1 -1 -1 -1 -1 -1 -1 -1 -1 -1 -1 -1 -1 -1 -1 -1 -1 -1 -1 -1 -1 -1
-1 -1 -1 -1 -1 -1 -1 -1 -1 -1 -1 -1 -1 -1 -1 -1 -1 -1 -1 -1 -1 -1 -1 -1
-1 -1 -1 -1 -1 -1 -1 -1 -1 -1 -1 -1 -1 -1 -1 -1
$$ ##$RG_tab3= (0..255)
-1 -1 -1 -1 -1 -1 -1 -1 -1 -1 -1 -1 -1 -1 -1 -1 -1 -1 -1 -1 -1 -1 -1 -1
-1 -1 -1 -1 -1 -1 -1 -1 -1 -1 -1 -1 -1 -1 -1 -1 -1 -1 -1 -1 -1 -1 -1 -1
-1 -1 -1 -1 -1 -1 -1 -1 -1 -1 -1 -1 -1 -1 -1 -1 -1 -1 -1 -1 -1 -1 -1 -1
-1 -1 -1 -1 -1 -1 -1 -1 -1 -1 -1 -1 -1 -1 -1 -1 -1 -1 -1 -1 -1 -1 -1 -1
-1 -1 -1 -1 -1 -1 -1 -1 -1 -1 -1 -1 -1 -1 -1 -1 -1 -1 -1 -1 -1 -1 -1 -1
-1 -1 -1 -1 -1 -1 -1 -1 -1 -1 -1 -1 -1 -1 -1 -1 -1 -1 -1 -1 -1 -1 -1 -1
-1 -1 -1 -1 -1 -1 -1 -1 -1 -1 -1 -1 -1 -1 -1 -1 -1 -1 -1 -1 -1 -1 -1 -1
-1 -1 -1 -1 -1 -1 -1 -1 -1 -1 -1 -1 -1 -1 -1 -1 -1 -1 -1 -1 -1 -1 -1 -1
-1 -1 -1 -1 -1 -1 -1 -1 -1 -1 -1 -1 -1 -1 -1 -1 -1 -1 -1 -1 -1 -1 -1 -1
-1 -1 -1 -1 -1 -1 -1 -1 -1 -1 -1 -1 -1 -1 -1 -1 -1 -1 -1 -1 -1 -1 -1 -1
-1 -1 -1 -1 -1 -1 -1 -1 -1 -1 -1 -1 -1 -1 -1 -1
$$ ##$RG_tab4= (0..255)
-1 -1 -1 -1 -1 -1 -1 -1 -1 -1 -1 -1 -1 -1 -1 -1 -1 -1 -1 -1 -1 -1 -1 -1
-1 -1 -1 -1 -1 -1 -1 -1 -1 -1 -1 -1 -1 -1 -1 -1 -1 -1 -1 -1 -1 -1 -1 -1
-1 -1 -1 -1 -1 -1 -1 -1 -1 -1 -1 -1 -1 -1 -1 -1 -1 -1 -1 -1 -1 -1 -1 -1
-1 -1 -1 -1 -1 -1 -1 -1 -1 -1 -1 -1 -1 -1 -1 -1 -1 -1 -1 -1 -1 -1 -1 -1
-1 -1 -1 -1 -1 -1 -1 -1 -1 -1 -1 -1 -1 -1 -1 -1 -1 -1 -1 -1 -1 -1 -1 -1
-1 -1 -1 -1 -1 -1 -1 -1 -1 -1 -1 -1 -1 -1 -1 -1 -1 -1 -1 -1 -1 -1 -1 -1
-1 -1 -1 -1 -1 -1 -1 -1 -1 -1 -1 -1 -1 -1 -1 -1 -1 -1 -1 -1 -1 -1 -1 -1
-1 -1 -1 -1 -1 -1 -1 -1 -1 -1 -1 -1 -1 -1 -1 -1 -1 -1 -1 -1 -1 -1 -1 -1
-1 -1 -1 -1 -1 -1 -1 -1 -1 -1 -1 -1 -1 -1 -1 -1 -1 -1 -1 -1 -1 -1 -1 -1
-1 -1 -1 -1 -1 -1 -1 -1 -1 -1 -1 -1 -1 -1 -1 -1 -1 -1 -1 -1 -1 -1 -1 -1
-1 -1 -1 -1 -1 -1 -1 -1 -1 -1 -1 -1 -1 -1 -1 -1
$$ ##$RG_tab5= (0..255)
-1 -1 -1 -1 -1 -1 -1 -1 -1 -1 -1 -1 -1 -1 -1 -1 -1 -1 -1 -1 -1 -1 -1 -1
-1 -1 -1 -1 -1 -1 -1 -1 -1 -1 -1 -1 -1 -1 -1 -1 -1 -1 -1 -1 -1 -1 -1 -1
-1 -1 -1 -1 -1 -1 -1 -1 -1 -1 -1 -1 -1 -1 -1 -1 -1 -1 -1 -1 -1 -1 -1 -1
-1 -1 -1 -1 -1 -1 -1 -1 -1 -1 -1 -1 -1 -1 -1 -1 -1 -1 -1 -1 -1 -1 -1 -1
-1 -1 -1 -1 -1 -1 -1 -1 -1 -1 -1 -1 -1 -1 -1 -1 -1 -1 -1 -1 -1 -1 -1 -1
-1 -1 -1 -1 -1 -1 -1 -1 -1 -1 -1 -1 -1 -1 -1 -1 -1 -1 -1 -1 -1 -1 -1 -1
-1 -1 -1 -1 -1 -1 -1 -1 -1 -1 -1 -1 -1 -1 -1 -1 -1 -1 -1 -1 -1 -1 -1 -1
-1 -1 -1 -1 -1 -1 -1 -1 -1 -1 -1 -1 -1 -1 -1 -1 -1 -1 -1 -1 -1 -1 -1 -1
-1 -1 -1 -1 -1 -1 -1 -1 -1 -1 -1 -1 -1 -1 -1 -1 -1 -1 -1 -1 -1 -1 -1 -1
-1 -1 -1 -1 -1 -1 -1 -1 -1 -1 -1 -1 -1 -1 -1 -1 -1 -1 -1 -1 -1 -1 -1 -1
-1 -1 -1 -1 -1 -1 -1 -1 -1 -1 -1 -1 -1 -1 -1 -1
$$ ##$RG_tab6= (0..255)
-1 -1 -1 -1 -1 -1 -1 -1 -1 -1 -1 -1 -1 -1 -1 -1 -1 -1 -1 -1 -1 -1 -1 -1
-1 -1 -1 -1 -1 -1 -1 -1 -1 -1 -1 -1 -1 -1 -1 -1 -1 -1 -1 -1 -1 -1 -1 -1
-1 -1 -1 -1 -1 -1 -1 -1 -1 -1 -1 -1 -1 -1 -1 -1 -1 -1 -1 -1 -1 -1 -1 -1
-1 -1 -1 -1 -1 -1 -1 -1 -1 -1 -1 -1 -1 -1 -1 -1 -1 -1 -1 -1 -1 -1 -1 -1
-1 -1 -1 -1 -1 -1 -1 -1 -1 -1 -1 -1 -1 -1 -1 -1 -1 -1 -1 -1 -1 -1 -1 -1
-1 -1 -1 -1 -1 -1 -1 -1 -1 -1 -1 -1 -1 -1 -1 -1 -1 -1 -1 -1 -1 -1 -1 -1
-1 -1 -1 -1 -1 -1 -1 -1 -1 -1 -1 -1 -1 -1 -1 -1 -1 -1 -1 -1 -1 -1 -1 -1
-1 -1 -1 -1 -1 -1 -1 -1 -1 -1 -1 -1 -1 -1 -1 -1 -1 -1 -1 -1 -1 -1 -1 -1
-1 -1 -1 -1 -1 -1 -1 -1 -1 -1 -1 -1 -1 -1 -1 -1 -1 -1 -1 -1 -1 -1 -1 -1
-1 -1 -1 -1 -1 -1 -1 -1 -1 -1 -1 -1 -1 -1 -1 -1 -1 -1 -1 -1 -1 -1 -1 -1
-1 -1 -1 -1 -1 -1 -1 -1 -1 -1 -1 -1 -1 -1 -1 -1
$$ ##$RG_tab7= (0..255)
-1 -1 -1 -1 -1 -1 -1 -1 -1 -1 -1 -1 -1 -1 -1 -1 -1 -1 -1 -1 -1 -1 -1 -1
-1 -1 -1 -1 -1 -1 -1 -1 -1 -1 -1 -1 -1 -1 -1 -1 -1 -1 -1 -1 -1 -1 -1 -1
-1 -1 -1 -1 -1 -1 -1 -1 -1 -1 -1 -1 -1 -1 -1 -1 -1 -1 -1 -1 -1 -1 -1 -1
-1 -1 -1 -1 -1 -1 -1 -1 -1 -1 -1 -1 -1 -1 -1 -1 -1 -1 -1 -1 -1 -1 -1 -1
-1 -1 -1 -1 -1 -1 -1 -1 -1 -1 -1 -1 -1 -1 -1 -1 -1 -1 -1 -1 -1 -1 -1 -1
-1 -1 -1 -1 -1 -1 -1 -1 -1 -1 -1 -1 -1 -1 -1 -1 -1 -1 -1 -1 -1 -1 -1 -1
-1 -1 -1 -1 -1 -1 -1 -1 -1 -1 -1 -1 -1 -1 -1 -1 -1 -1 -1 -1 -1 -1 -1 -1
-1 -1 -1 -1 -1 -1 -1 -1 -1 -1 -1 -1 -1 -1 -1 -1 -1 -1 -1 -1 -1 -1 -1 -1
-1 -1 -1 -1 -1 -1 -1 -1 -1 -1 -1 -1 -1 -1 -1 -1 -1 -1 -1 -1 -1 -1 -1 -1
-1 -1 -1 -1 -1 -1 -1 -1 -1 -1 -1 -1 -1 -1 -1 -1 -1 -1 -1 -1 -1 -1 -1 -1
-1 -1 -1 -1 -1 -1 -1 -1 -1 -1 -1 -1 -1 -1 -1 -1
$$ ##$RG_tab8= (0..255)
-1 -1 -1 -1 -1 -1 -1 -1 -1 -1 -1 -1 -1 -1 -1 -1 -1 -1 -1 -1 -1 -1 -1 -1
-1 -1 -1 -1 -1 -1 -1 -1 -1 -1 -1 -1 -1 -1 -1 -1 -1 -1 -1 -1 -1 -1 -1 -1
-1 -1 -1 -1 -1 -1 -1 -1 -1 -1 -1 -1 -1 -1 -1 -1 -1 -1 -1 -1 -1 -1 -1 -1
-1 -1 -1 -1 -1 -1 -1 -1 -1 -1 -1 -1 -1 -1 -1 -1 -1 -1 -1 -1 -1 -1 -1 -1
-1 -1 -1 -1 -1 -1 -1 -1 -1 -1 -1 -1 -1 -1 -1 -1 -1 -1 -1 -1 -1 -1 -1 -1
-1 -1 -1 -1 -1 -1 -1 -1 -1 -1 -1 -1 -1 -1 -1 -1 -1 -1 -1 -1 -1 -1 -1 -1
-1 -1 -1 -1 -1 -1 -1 -1 -1 -1 -1 -1 -1 -1 -1 -1 -1 -1 -1 -1 -1 -1 -1 -1
-1 -1 -1 -1 -1 -1 -1 -1 -1 -1 -1 -1 -1 -1 -1 -1 -1 -1 -1 -1 -1 -1 -1 -1
-1 -1 -1 -1 -1 -1 -1 -1 -1 -1 -1 -1 -1 -1 -1 -1 -1 -1 -1 -1 -1 -1 -1 -1
-1 -1 -1 -1 -1 -1 -1 -1 -1 -1 -1 -1 -1 -1 -1 -1 -1 -1 -1 -1 -1 -1 -1 -1
-1 -1 -1 -1 -1 -1 -1 -1 -1 -1 -1 -1 -1 -1 -1 -1
$$ ##$RG_tabA= (0..255)
0.25 0.28 0.32 0.35 0.4 0.44 0.5 0.56 0.64 0.7 0.8 0.89 1 1.12 1.28 1.4
1.6 1.78 2 2.25 2.56 2.8 3.2 3.56 4 4.5 5 5.6 6.35 7.12 8 9 10 11.3 12.7
14.2 16 18 20.2 22.6 25.4 28.5 32 36 40.3 45.2 50.8 57 64 71.8 80.6 90.5
101 114 128 144 161 181 203 228 256 287 322 362 406 456 512 575 645 724
812 912 1030 1150 1290 1440 1620 1820 2050 -1 -1 -1 -1 -1 -1 -1 -1 -1 -1
-1 -1 -1 -1 -1 -1 -1 -1 -1 -1 -1 -1 -1 -1 -1 -1 -1 -1 -1 -1 -1 -1 -1 -1
-1 -1 -1 -1 -1 -1 -1 -1 -1 -1 -1 -1 -1 -1 -1 -1 -1 -1 -1 -1 -1 -1 -1 -1
-1 -1 -1 -1 -1 -1 -1 -1 -1 -1 -1 -1 -1 -1 -1 -1 -1 -1 -1 -1 -1 -1 -1 -1
-1 -1 -1 -1 -1 -1 -1 -1 -1 -1 -1 -1 -1 -1 -1 -1 -1 -1 -1 -1 -1 -1 -1 -1
-1 -1 -1 -1 -1 -1 -1 -1 -1 -1 -1 -1 -1 -1 -1 -1 -1 -1 -1 -1 -1 -1 -1 -1
-1 -1 -1 -1 -1 -1 -1 -1 -1 -1 -1 -1 -1 -1 -1 -1 -1 -1 -1 -1 -1 -1 -1 -1
-1 -1 -1 -1 -1 -1 -1 -1 -1 -1 -1 -1 -1 -1 -1 -1 -1 -1 -1 -1 -1 -1 -1
$$ ##$ROUT14= (0..7)
0 0 0 0 0 0 0 0
$$ ##$ROUTER= -1
$$ ##$RX22TY= <no>
$$ ##$RXFMAX= (0..7)
647.5 -1 -1 -1 -1 -1 -1 -1
$$ ##$RXFMIN= (0..7)
5 -1 -1 -1 -1 -1 -1 -1
$$ ##$RXINTLV= (0..7)
1 0 0 0 0 0 0 0
$$ ##$RXMSTY= <no>
$$ ##$SCMTY= <no>
$$ ##$SGUC1= (0..15)
33 34 17 0 0 0 0 0 0 0 0 0 0 0 0 0
$$ ##$SGUC2= (0..15)
36 256 35 0 0 0 0 0 0 0 0 0 0 0 0 0
$$ ##$SPECTR= 10
$$ ##$SY2FLAG= 0
$$ ##$TFXNUM= 0
$$ ##$TRIPLO2= 0
$$ ##$VTUTY= <tty05>
$$ ##$WBREFAM= (0..15)
100 100 100 100 100 100 100 100 100 100 100 100 100 100 100 100
$$ ##$WBREFPH= (0..15)
0 0 0 0 0 0 0 0 0 0 0 0 0 0 0 0
$$ ##$XFAC= 2
$$ ##END=
##$RELAX= 
##$BRUKER FILE PROC=peaklist.xml
$$ <?xml version="1.0" encoding="UTF-8"?>
$$ <PeakList modified="2016-12-02T15:05:25">
$$   <PeakList1D>
$$     <PeakList1DHeader creator="nes" date="2016-12-02T15:05:25" expNo="2" name="dd_nes_menthol_dmso_011216" owner="" procNo="1" source="C:/transferNMR">
$$       <PeakPickDetails>F1=72.528ppm, F2=44.336ppm, MI=1.44cm, MAXI=4.61cm, PC=1.400
$$       </PeakPickDetails>
$$     </PeakList1DHeader>
$$     <Peak1D F1="69.9654" intensity="2.63" type="0"/>
$$     <Peak1D F1="50.0396" intensity="2.67" type="0"/>
$$     <Peak1D F1="45.6785" intensity="2.49" type="0"/>
$$   </PeakList1D>
$$   <PeakList1D>
$$     <PeakList1DHeader creator="nes" date="2016-12-02T15:05:25" expNo="2" name="dd_nes_menthol_dmso_011216" owner="" procNo="1" source="C:/transferNMR">
$$       <PeakPickDetails>F1=36.241ppm, F2=14.233ppm, MI=1.39cm, MAXI=4.18cm, PC=1.400
$$       </PeakPickDetails>
$$     </PeakList1DHeader>
$$     <Peak1D F1="34.8431" intensity="2.46" type="0"/>
$$     <Peak1D F1="31.6323" intensity="2.64" type="0"/>
$$     <Peak1D F1="25.5452" intensity="2.42" type="0"/>
$$     <Peak1D F1="23.3019" intensity="2.48" type="0"/>
$$     <Peak1D F1="22.7700" intensity="2.46" type="0"/>
$$     <Peak1D F1="21.4777" intensity="2.38" type="0"/>
$$     <Peak1D F1="16.5504" intensity="2.36" type="0"/>
$$   </PeakList1D>
$$ </PeakList>
##$RELAX= 
##$BRUKER FILE PROC=peakrng
$$ P    #regions in PPM
$$ # 2016-12-02 15:05:27 +0100  nes@nmr-dd-nes
$$ # low field   high field   mi   maxi
$$   72.52838655635244  44.33553410184554  1.442  4.614  # for region 1
$$   36.24145710684194  14.23284325525913  1.388  4.182  # for region 2
##$RELAX= 
$$ Bruker specific parameters
$$ --------------------------
##$DATPATH= <D:\SciPrograms\Bruker\TopSpin3.5.b.91pl7\data\nes\nmr>
##$EXPNO= 2
##$NAME= <Displayer_2216-51-5>
##$PROCNO= 1
##$ACQT0= -2.33193285324994
##$AMP= (0..31)
100 100 100 100 100 100 100 100 100 100 100 100 100 100 100 100 100 100
100 100 100 100 100 100 100 100 100 100 100 100 100 100
##$AMPCOIL= (0..19)
0 0 0 0 0 0 0 0 0 0 0 0 0 0 0 0 0 0 0 0
##$ANAVPT= -1
##$AQSEQ= 0
##$AQ_mod= 3
##$AUNM= <au_zg>
##$AUTOPOS= <>
##$BF1= 150.92041
##$BF2= 600.2
##$BF3= 600.2
##$BF4= 150.930468
##$BF5= 500.13
##$BF6= 500.13
##$BF7= 500.13
##$BF8= 500.13
##$BWFAC= (0..63)
0 0 0 0 0 0 0 0 0 0 0 0 0 0 0 0 0 0 0 0 0 0 0 0 0 0 0 0 0 0 0 0 0 0 0 0
0 0 0 0 0 0 0 0 0 0 0 0 0 0 0 0 0 0 0 0 0 0 0 0 0 0 0 0
##$BYTORDA= 0
##$CAGPARS= (0..11)
0 0 0 0 0 0 0 0 0 0 0 0
##$CHEMSTR= <none>
##$CNST= (0..63)
1 1 145 1 1 1 1 1 1 1 1 1 1 1 1 1 1 1 1 1 1 1 1 1 1 1 1 1 1 1 1 1 1 1 1
1 1 1 1 1 1 1 1 1 1 1 1 1 1 1 1 1 1 1 1 1 1 1 1 1 1 1 1 1
##$CPDPRG= (0..8)
<waltz16> <> <waltz16> <> <mlev> <mlev> <mlev> <mlev> <mlev>
##$D= (0..63)
0 3 0.00345 0 0 0 0 0 0 0 0 0.03 2e-005 3e-006 0 0 0 0 0 0 0 0 0 0 0 0
0 0 0 0 0 0 0 0 0 0 0 0 0 0 0 0 0 0 0 0 0 0 0 0 0 0 0 0 0 0 0 0 0 0 0 0
0 0
##$DATE= 1480685365
##$DE= 6
##$DECBNUC= <off>
##$DECIM= 672
##$DECNUC= <off>
##$DECSTAT= 4
##$DIGMOD= 1
##$DIGTYP= 12
##$DQDMODE= 0
##$DR= 21
##$DS= 4
##$DSPFIRM= 0
##$DSPFVS= 20
##$DTYPA= 0
##$EXP= <13c_zgdc30_bbo.nes>
##$FCUCHAN= (0..9)
0 1 2 0 0 0 0 0 0 0
##$FL1= 83
##$FL2= 83
##$FL3= 83
##$FL4= 83
##$FN_INDIRECT= (0..7)
0 0 0 0 0 0 0 0
##$FOV= 20
##$FQ1LIST= <freqlist>
##$FQ2LIST= <freqlist>
##$FQ3LIST= <freqlist>
##$FQ4LIST= <freqlist>
##$FQ5LIST= <freqlist>
##$FQ6LIST= <freqlist>
##$FQ7LIST= <freqlist>
##$FQ8LIST= <freqlist>
##$FRQLO3= 1213690.06104999
##$FRQLO3N= 0
##$FS= (0..7)
83 83 83 83 83 83 83 83
##$FTLPGN= 0
##$FW= 250000
##$FnILOOP= 0
##$FnMODE= 0
##$FnTYPE= 0
##$GPNAM= (0..31)
<SINE.100> <SINE.100> <SINE.100> <SINE.100> <SINE.100> <SINE.100> <SINE.100>
<SINE.100> <SINE.100> <SINE.100> <SINE.100> <SINE.100> <SINE.100> <SINE.100>
<SINE.100> <SINE.100> <SINE.100> <SINE.100> <SINE.100> <SINE.100> <SINE.100>
<SINE.100> <SINE.100> <SINE.100> <SINE.100> <SINE.100> <SINE.100> <SINE.100>
<SINE.100> <SINE.100> <SINE.100> <SINE.100>
##$GPX= (0..31)
0 0 0 0 0 0 0 0 0 0 0 0 0 0 0 0 0 0 0 0 0 0 0 0 0 0 0 0 0 0 0 0
##$GPY= (0..31)
0 0 0 0 0 0 0 0 0 0 0 0 0 0 0 0 0 0 0 0 0 0 0 0 0 0 0 0 0 0 0 0
##$GPZ= (0..31)
0 0 0 0 0 0 0 0 0 0 0 0 0 0 0 0 0 0 0 0 0 0 0 0 0 0 0 0 0 0 0 0
##$GRDPROG= <>
##$GRPDLY= 67.9838256835938
##$HDDUTY= 20
##$HDRATE= 20
##$HGAIN= (0..3)
0 0 0 0
##$HL1= 3
##$HL2= 83
##$HL3= 83
##$HL4= 83
##$HOLDER= 0
##$HPMOD= (0..7)
0 0 0 0 0 0 0 0
##$HPPRGN= 0
##$IN= (0..63)
0.001 0.001 0.001 0.001 0.001 0.001 0.001 0.001 0.001 0.001 0.001 0.001
0.001 0.001 0.001 0.001 0.001 0.001 0.001 0.001 0.001 0.001 0.001 0.001
0.001 0.001 0.001 0.001 0.001 0.001 0.001 0.001 0.001 0.001 0.001 0.001
0.001 0.001 0.001 0.001 0.001 0.001 0.001 0.001 0.001 0.001 0.001 0.001
0.001 0.001 0.001 0.001 0.001 0.001 0.001 0.001 0.001 0.001 0.001 0.001
0.001 0.001 0.001 0.001
##$INF= (0..7)
0 0 0 0 0 0 0 0
##$INP= (0..63)
0 0 0 0 0 0 0 0 0 0 0 0 0 0 0 0 0 0 0 0 0 0 0 0 0 0 0 0 0 0 0 0 0 0 0 0
0 0 0 0 0 0 0 0 0 0 0 0 0 0 0 0 0 0 0 0 0 0 0 0 0 0 0 0
##$INSTRUM= <spect>
##$INTEGFAC= (0..63)
0 0 0 0 0 0 0 0 0 0 0 0 0 0 0 0 0 0 0 0 0 0 0 0 0 0 0 0 0 0 0 0 0 0 0 0
0 0 0 0 0 0 0 0 0 0 0 0 0 0 0 0 0 0 0 0 0 0 0 0 0 0 0 0
##$L= (0..31)
1 1 1 1 1 1 1 1 1 1 1 1 1 1 1 1 1 1 1 1 1 1 1 1 1 1 1 1 1 1 1 1
##$LFILTER= 200
##$LGAIN= 5
##$LINPSTP= 0
##$LOCKED= yes
##$LOCKFLD= 5606
##$LOCKGN= 104.146690368652
##$LOCKPOW= -29.9999942779541
##$LOCKPPM= 2.49000000953674
##$LOCNUC= <2H>
##$LOCPHAS= 95
##$LOCSHFT= yes
##$LOCSW= 0
##$LTIME= 0.25
##$MASR= 4200
##$MASRLST= <masrlst>
##$MULEXPNO= (0..15)
0 0 0 0 0 0 0 0 0 0 0 0 0 0 0 0
##$NBL= 1
##$NC= -5
##$NLOGCH= 3
##$NOVFLW= 0
##$NS= 28
##$NUC1= <13C>
##$NUC2= <1H>
##$NUC3= <off>
##$NUC4= <off>
##$NUC5= <off>
##$NUC6= <off>
##$NUC7= <off>
##$NUC8= <off>
##$NUCLEUS= <off>
##$NUSLIST= <>
##$NusAMOUNT= 0
##$NusFPNZ= no
##$NusJSP= 0
##$NusSEED= 0
##$NusSPTYPE= 0
##$NusT2= 0
##$NusTD= 0
##$O1= 14337.43895
##$O2= 3001.2
##$O3= 15093.09
##$O4= 15093.0948047971
##$O5= 0
##$O6= 0
##$O7= 0
##$O8= 0
##$OVERFLW= 0
##$P= (0..63)
11 11.1 22 8.5 17 0 0 0 0 0 0 0 0 0 0 0 1000 0 0 0 0 0 0 0 0 0 0 0 0 0
0 100 0 0 0 0 0 0 0 0 0 0 0 0 0 0 0 0 0 0 0 0 0 0 0 0 0 0 0 0 0 0 0 0
##$PACOIL= (0..15)
0 0 0 0 0 0 0 0 0 0 0 0 0 0 0 0
##$PAPS= 2
##$PARMODE= 0
##$PCPD= (0..9)
100 100 100 100 100 100 100 100 100 100
##$PEXSEL= (0..9)
1 1 1 1 1 1 1 1 1 1
##$PHCOR= (0..31)
0 0 0 0 0 0 0 0 0 0 0 0 0 0 0 0 0 0 0 0 0 0 0 0 0 0 0 0 0 0 0 0
##$PHLIST= <>
##$PHP= 2
##$PH_ref= 0
##$PL= (0..63)
120 3.4 17 120 120 120 120 120 120 120 120 120 17 17 120 120 120 120 120
120 120 120 120 120 120 120 120 120 120 120 120 120 120 120 120 120 120
120 120 120 120 120 120 120 120 120 120 120 120 120 120 120 120 120 120
120 120 120 120 120 120 120 120 120
##$PLSTEP= 0.1
##$PLSTRT= -6
##$PLW= (0..63)
-1 -1 -1 -1 -1 -1 -1 -1 -1 -1 -1 -1 -1 -1 -1 -1 -1 -1 -1 -1 -1 -1 -1 -1
-1 -1 -1 -1 -1 -1 -1 -1 -1 -1 -1 -1 -1 -1 -1 -1 -1 -1 -1 -1 -1 -1 -1 -1
-1 -1 -1 -1 -1 -1 -1 -1 -1 -1 -1 -1 -1 -1 -1 -1
##$PLWMAX= (0..7)
0 0 0 0 0 0 0 0
##$PQPHASE= 0
##$PQSCALE= 0
##$PR= 4
##$PRECHAN= (0..15)
-1 1 0 2 -1 -1 -1 -1 -1 3 -1 -1 -1 -1 -1 -1
##$PRGAIN= 0
##$PROBHD= <5 mm BBO BB-1H/D Z-GRD Z8478/0071
>
##$PULPROG= <zgdc30>
##$PW= 0
##$PYNM= <acqu.py>
##$ProjAngle= 0
##$QNP= 1
##$RD= 0
##$RECCHAN= (0..15)
0 1 0 0 0 0 0 0 0 0 0 0 0 0 0 0
##$RECPH= 0
##$RECPRE= (0..15)
-1 1 -1 -1 -1 -1 -1 -1 -1 -1 -1 -1 -1 -1 -1 -1
##$RECPRFX= (0..15)
-1 0 0 0 0 0 0 0 0 0 0 0 0 0 0 0
##$RECSEL= (0..15)
0 1 0 0 0 0 0 0 0 0 0 0 0 0 0 0
##$RG= 2050
##$RO= 0
##$RSEL= (0..15)
0 1 2 0 0 0 0 0 0 0 0 0 0 0 0 0
##$S= (0..7)
83 25 26 83 26 83 83 83
##$SELREC= (0..9)
0 0 0 0 0 0 0 0 0 0
##$SFO1= 150.93474743895
##$SFO2= 600.2030012
##$SFO3= 600.21509309
##$SFO4= 150.945561094805
##$SFO5= 500.13
##$SFO6= 500.13
##$SFO7= 500.13
##$SFO8= 500.13
##$SOLVENT= <DMSO>
##$SOLVOLD= <off>
##$SP= (0..63)
1 0 0 0 0 0 0 0 0 0 0 0 0 0 0 0 150 150 150 150 150 150 150 150 150 150
150 150 150 150 150 150 120 120 120 120 120 120 120 120 120 120 120 120
120 120 120 120 120 120 120 120 120 120 120 120 120 120 120 120 120 120
120 120
##$SPECTR= 0
##$SPINCNT= 0
##$SPNAM= (0..63)
<gauss> <gauss> <gauss> <gauss> <gauss> <gauss> <gauss> <gauss> <gauss>
<gauss> <gauss> <gauss> <gauss> <gauss> <gauss> <gauss> <gauss> <gauss>
<gauss> <gauss> <gauss> <gauss> <gauss> <gauss> <gauss> <gauss> <gauss>
<gauss> <gauss> <gauss> <gauss> <gauss> <> <> <> <> <> <> <> <> <> <> <>
<> <> <> <> <> <> <> <> <> <> <> <> <> <> <> <> <> <> <> <> <>
##$SPOAL= (0..63)
0.5 0.5 0.5 0.5 0.5 0.5 0.5 0.5 0.5 0.5 0.5 0.5 0.5 0.5 0.5 0.5 0.5 0.5
0.5 0.5 0.5 0.5 0.5 0.5 0.5 0.5 0.5 0.5 0.5 0.5 0.5 0.5 0.5 0.5 0.5 0.5
0.5 0.5 0.5 0.5 0.5 0.5 0.5 0.5 0.5 0.5 0.5 0.5 0.5 0.5 0.5 0.5 0.5 0.5
0.5 0.5 0.5 0.5 0.5 0.5 0.5 0.5 0.5 0.5
##$SPOFFS= (0..63)
0 0 0 0 0 0 0 0 0 0 0 0 0 0 0 0 0 0 0 0 0 0 0 0 0 0 0 0 0 0 0 0 0 0 0 0
0 0 0 0 0 0 0 0 0 0 0 0 0 0 0 0 0 0 0 0 0 0 0 0 0 0 0 0
##$SPPEX= (0..63)
0 0 0 0 0 0 0 0 0 0 0 0 0 0 0 0 0 0 0 0 0 0 0 0 0 0 0 0 0 0 0 0 0 0 0 0
0 0 0 0 0 0 0 0 0 0 0 0 0 0 0 0 0 0 0 0 0 0 0 0 0 0 0 0
##$SPW= (0..63)
0 0 0 0 0 0 0 0 0 0 0 0 0 0 0 0 0 0 0 0 0 0 0 0 0 0 0 0 0 0 0 0 0 0 0 0
0 0 0 0 0 0 0 0 0 0 0 0 0 0 0 0 0 0 0 0 0 0 0 0 0 0 0 0
##$SUBNAM= (0..9)
<""> <""> <""> <""> <""> <""> <""> <""> <""> <"">
##$SW= 197.183917334495
##$SWIBOX= (0..19)
0 1 2 0 0 0 0 0 0 0 0 0 0 0 0 0 0 0 0 0
##$SW_h= 29761.9047619048
##$SWfinal= 0
##$SigLockShift= 0
##$TD= 262144
##$TD0= 1
##$TD_INDIRECT= (0..7)
0 0 0 0 0 0 0 0
##$TDav= 0
##$TE= 298.2
##$TE1= 300
##$TE2= 300
##$TE3= 300
##$TE4= 300
##$TEG= 300
##$TE_MAGNET= 300
##$TE_PIDX= 0
##$TE_STAB= (0..9)
0 0 0 0 0 0 0 0 0 0
##$TL= (0..7)
0 120 120 120 120 120 120 120
##$TOTROT= (0..63)
0 0 0 0 0 0 0 0 0 0 0 0 0 0 0 0 0 0 0 0 0 0 0 0 0 0 0 0 0 0 0 0 0 0 0 0
0 0 0 0 0 0 0 0 0 0 0 0 0 0 0 0 0 0 0 0 0 0 0 0 0 0 0 0
##$TUBE_TYPE= <>
##$USERA1= <user>
##$USERA2= <user>
##$USERA3= <user>
##$USERA4= <user>
##$USERA5= <user>
##$V9= 5
##$VALIDCODE= 0
##$VALIST= <valist>
##$VCLIST= <CCCCCCCCCCCCCCC>
##$VDLIST= <DDDDDDDDDDDDDDD>
##$VPLIST= <PPPPPPPPPPPPPPP>
##$VTLIST= <TTTTTTTTTTTTTTT>
##$WBST= 1024
##$WBSW= 4
##$XGAIN= (0..3)
0 0 0 0
##$XL= 0
##$YL= 0
##$YMAX_a= 530515
##$YMIN_a= -468013
##$ZGOPTNS= <>
##$ZL1= 120
##$ZL2= 120
##$ZL3= 120
##$ZL4= 120
##$ABSF1= 240
##$ABSF2= -10
##$ABSG= 5
##$ABSL= 3
##$ALPHA= 0
##$AQORDER= 0
##$ASSFAC= 0
##$ASSFACI= 0
##$ASSFACX= 0
##$ASSWID= 0
##$AUNMP= <proc_1d>
##$AXLEFT= 0
##$AXNAME= <>
##$AXNUC= <off>
##$AXRIGHT= 0
##$AXTYPE= 0
##$AXUNIT= <>
##$AZFE= 0.1
##$AZFW= 0.5
##$BCFW= 1
##$BC_mod= 2
##$BYTORDP= 0
##$COROFFS= 0
##$CY= 13.5
##$DATMOD= 1
##$DC= 1
##$DFILT= <>
##$DTYPP= 0
##$ERETIC= no
##$F1P= 178.594802856445
##$F2P= -18.5947053739592
##$FCOR= 0.5
##$FTSIZE= 524288
##$FT_mod= 0
##$GAMMA= 1
##$GB= 0
##$INTBC= 1
##$INTSCL= 1
##$ISEN= 30
##$LB= 2
##$LEV0= 0
##$LPBIN= 0
##$MAXI= 10000
##$MC2= 0
##$MEAN= 0
##$ME_mod= 0
##$MI= 0
##$MddCEXP= no
##$MddCT_SP= no
##$MddF180= no
##$MddLAMBDA= 0
##$MddMEMORY= 0
##$MddMERGE= 0
##$MddNCOMP= 0
##$MddNITER= 0
##$MddNOISE= 0
##$MddPHASE= 0
##$MddSEED= 0
##$MddSRSIZE= 0
##$Mdd_CsALG= 0
##$Mdd_CsLAMBDA= 0
##$Mdd_CsNITER= 0
##$Mdd_CsNORM= 0
##$Mdd_CsVE= yes
##$Mdd_CsZF= 0
##$Mdd_LrLAMBDA= 0
##$Mdd_LrNITER= 0
##$Mdd_LrRANK= 0
##$Mdd_LrZF= 0
##$Mdd_mod= 0
##$NCOEF= 0
##$NC_proc= 0
##$NLEV= 6
##$NOISF1= 121.6667
##$NOISF2= 81.6667
##$NSP= 1
##$NTH_PI= 0
##$NZP= 1
##$OFFSET= 193.6013
##$PC= 1.4
##$PHC0= 23.37931
##$PHC1= -91.20612
##$PH_mod= 0
##$PKNL= yes
##$PPARMOD= 0
##$PPDIAG= 0
##$PPIPTYP= 0
##$PPMPNUM= 2147483647
##$PPRESOL= 1
##$PSCAL= 0
##$PSIGN= 0
##$PYNMP= <proc.py>
##$RDF1= 0
##$RDF2= 0
##$RDFWHM= 0
##$RDINT= 0
##$RDPOS= 0
##$REVERSE= no
##$SF= 150.92041
##$SI= 524288
##$SIGF1= 140
##$SIGF2= 120
##$SINO= 80
##$SIOLD= 524288
##$SPECTYP= <C13>
##$SREF_mod= 1
##$SREGLST= <13C.CDCl3>
##$SSB= 0
##$STSI= 0
##$STSR= 0
##$SW_p= 29761.9047619048
##$SYMM= 0
##$S_DEV= 0
##$TDeff= 0
##$TDoff= 0
##$TI= <>
##$TILT= no
##$TM1= 0
##$TM2= 0
##$TOPLEV= 0
##$USERP1= <user>
##$USERP2= <user>
##$USERP3= <user>
##$USERP4= <user>
##$USERP5= <user>
##$WDW= 1
##$XDIM= 64
##$YMAX_p= 0
##$YMIN_p= 0
##$CURPLOT= <printer>
##$CURPRIN= <$printer>
##$DFORMAT= <normdp>
##$LAYOUT= <+/layouts.ATP/1D.xwp>
##$LFORMAT= <normlp>
##$PFORMAT= <normpl>
$$ End of Bruker specific parameters
$$ ---------------------------------
##NTUPLES= NMR FID
##VAR_NAME=  TIME,          FID/REAL,        FID/IMAG
##SYMBOL=    X,             R,               I
##VAR_TYPE=  INDEPENDENT,   DEPENDENT,       DEPENDENT
##VAR_FORM=  AFFN,          ASDF,            ASDF
##VAR_DIM=   131072,        131072,          131072
##UNITS=     SECONDS,       ARBITRARY UNITS, ARBITRARY UNITS
##FACTOR=    3.36e-005,     1,               1
##FIRST=     0,             0,               0
##LAST=      4.40398559999999, -13102,       -6878
##MIN=       0,             -468013,         -468013
##MAX=       4.40398559999999, 530515,       530515
$$ Real data points
##PAGE= N=1
##DATA TABLE= (X++(R..R)), XYDATA
0@@@@@@@@@@@@BeA1b0B5b6C0c9D7e9F7h0I3a11A26a50A73a97B25b55B93c30C76
35d25D76e37F04f70G50h34I29a034A142a264A396a546A707a881B078b294B532
53b799C098c436C823d263D773e378F102f995H118i584A1590a4519A9216b8273
68I3898d13276a41775D63711g3789l06383A42078K55752b28382p6558C82795I6615
80d38327E8377L42674a99585q3298B65071m9971c58070a35909D35158g233m10502
91d17735B16988J38557c45338J58944C70992G6233d05663H2414L11307b19715
102c42016C85291A86993d03328d7639D50716c2073m26254B40885J01873c68566
113a81824D07963B6900c77333A17975K11581b63730L3582C52298A62073c72625
124F365L77777a85896j69371B66632m3984b99548a34157C46917C3261d54047A21524
136C96249b92668N6302C92286G5530d43168F1008L22510a94852j23267C04165
147B47476c41642a21538C85177g1752k58774B08797K8713b21072P7097B72875
158F9596c56835F0553L16779b37629o560C28928A09278c56180a6311C42317f3585
170c27655B09787M5105b65660R5419C22250C6249c47334A21286J68921a99645
181b54810B59002r8543c51232B8807L60146a73453p4938B17061p3271b59705i9301
193C13084c4524k24318A67628p406b36166i8598B54477I9844b88060A8128L00932
204C19060a54462j29087B31945m5834b78088d1721B69657e6347k22434I5765J26345
215B22110a80024N3824C01883a562k84971A19338O5223i7867n1129A94831k9525
226A65306b69549d7767B56302a10951q7572A77525k4302a93274f8643A96080e3612
238a81045A20027O4387a35750j2301A79189H3217b55571i657B39506c4901j42457
249a77358A15928L7531a85140h3953A84058A4916a85255I8168O8752b02404P1303
260a31101B14768d8667j12475I3160N036e6842p1274A21188k8093a72506a2115
272A89393e5023o7981F0067N4254a49267P1845A60272C6767a60758C9891J03254
283A43145a15426k5239A54705p0974a10728a1371A21528c6841r8612D7007O7446
294A14453i4292a9190A27620d0862q1109F3478O4159a51130e4302A79202b7410
306a32416A5430P7787d4498l7476I5028j2970i5884B2467M6500f359l8069D1404
319I8531e7246k5118A01786H603a17745a4660A39754a2025r5088H6368B2347a15202
332A5253L3365d6148P021G0931l2213h6111a1083I4526c868r9216G6161J6371
344I2532g5186K3482B1434L0783c2186q269G2919A266i0167F1818B464g1659C1340
358a2153A4229F546d6187D8511b4930n8500D7635j3492c5150F744J1045c4521
371e4008I419L6493c8522C311J06097h1094J3210A15114b1626m1513B0604J4617
383C5221k892e1361f814D6537e3418a0278A7682n425L2320f4629D644K3801e4689
397D5240A3577e5188C9883i323n5905e548j0672B5637p391b2422C0332g872n9673
410f7545i682D208b7785E2833c60o65L33n8587E9417j7270g2564H0215a672o2747
424f4419D8952b7944D969L7266a7350l063D9328h065m2171K3678B9436q448c309
438B83h00B6946A1157a9751k8595B7191K3083d4700C2911j3546d9135a0756A6496
[...]
126959H290J731a5731P262B627a5463Q33c949F269b882B311d473j3587G57a4893
126974B763P888B482a1137d779G499d86m411A3825R099F801a7497F815f106A5504
126989a115l969G138d489A8564E84A12J8255b7527a3638d394n52j232p585e365
127004a587B072K939c396B6240o682a4909A4163a5642b873D786e580H382d295
127018b115B0104a2236q66a356p802E394i202g67F00a0506m33b094k432q673A761
127034A4557E577F87b3701C072M21A514i047E73J1777f001j2018n481a0541d380
127049h747L334C483a307o152j0973B8140b3645a089I497A088a0207d953C822
127063a2692A3210f659A7210a9414I893l085b728n080A3717g217A2275a1725p475
127076a9200e787K767j1040l276j10E643a3347L135d404A4203g111q022A3794
127090b0539g984A2412d744A367N823h687B8898H042C642b2961J05B386b421j4086
127104a6507b082m419B4715H107a544j6989Q923F01a523A0276a0412L505q854
127117a5761r161b253A3649l930e598A6333c95A1207a2367E031d388j037H382
127131e346o729I979j281R723C058d308m308F242J852J5499B196P015b8540A222
127146a5699A6928j68a3988H808i068D576f789D748b8316D474b998C204a7373
127160d56B946G21d167j095A1611e401a807j1034H02O155a3760A9600g286B7481
127175b2985a1246M473m299k294M242N36B757f725A4436p093a9039f539j23H649
127190e205a698A071P271J9225j2599a5394L615B2686A0288g293B397K126a2467
127204c058A0803a4305l648b339A7612a3967J58m620L737f775b484A5786G48c906
127219e294A9678B684J4778g017l660b462A3079n408a1062K13L501A5572G210
127233b3473B556i97A1918a2966k98A0956a3364O288E324a6376d457A0500L85
127246A0885C381L334a813h51B4227j1928A467f756B3194a3731B569a2257H008
127260a1961c434B3779b6901a24A4691E062J6907f16H127M153Q778D059a4934
127274C836d38J34k7241h343a505A3426b132n423L615B5441A0575c999A5642K195
127288A7837a8786A0757g634o83m826F564J2379b453A3862D993a546k281m13A6940
127303C795M634L784N31C045a9792B3119h670B2P795b015k39G887J878o26c632
127319b4688D659M506L791b7601a3186f334A8681c486A4861d588j5774F260g442
127333a7523N302o929P684A2279a0515r450B6959G447e285j6342a396j9770F432
127347i721d183A4162f833q435A3848a2753d107l002N21B165a1960q044d886C87
127362C62J7814b0187Q766A5493p174j7e587p154A2185a017A1334b045j2481J374
127376a3152g08C735M600B961c3385H291h202B30L4667j1499C314K5101j2151
127389A6264a3635c329B4095a0453G23J3528a1510i90B470a3990M45B883O092
127402H975d306B091g491E249a0403B220O118O175C258a855p192E711k726a763
127417h069A5287h96p334k185a310G559J0410c755q773I977c835A2513b8713a977
127432C2K7301a1559c637A5645a3086m111e220l276C326Q049b906o48A3318i383
127447G230d844E552a0234j479a856N25m382l949D7694E900f845c300j2077k114
127461a7491k2644a5168c00A7902n628A341J7403E050d736C786b2179G607M855
127474A2462a007G943k325Q150a0731I008g93o092j1666b151p607m703b805A987
127489A0518h095B580K8139A53J1254J9885g53p209J121I300L441g4k5890J2777
127503a3187d271A2183c313M26A4600J0044M917G017J3252E757e257h00F572P391
127517A3963N761a2797I30J5618b753A1081e568K609j0728c37C267a6595d086
127531b780A1676a1587B388P56O563h9j7917A37a3999A6055n279B768b767j0470
127545a3237A6760h047c370a027A0327D538d19o591C08c938r846C487J6145a651
127560H516a6228J068A2767n791K990l42Q158b355A0334f139G127a3706m177B974
127575b1008R799A8966N274c191E29J7098a5166O601j011A0157h564A4510o187
127588H323a781k054j1549O700B7851e132j1964I833K465A074h363a109k39p94
127602b142k3885n719d354r145q630a0515R57r545B1388C277J2637l131b5738
127616a8136a407I499i017B724K282a0179B5222i989M960G094e759j8055E110
127630i372A7793B729b1246a920p21A990e317A3506N584m493J047a0473m090B374
127645E080a0526C959K1952a5882a337A5269n508m554L500J098L285a3566D156
127659e431H136B263d170E539E94e892J458E150A211M142f670r82F007d895E703
127675a3326M349F863b722O42l179j0785A1373E262M294d716D459e19l207A0902
127690a4755K396j6962E170N494B512R719a213A5200k918k391b032A8171c1899
127704a9611l470A8085b7099d704j17K082A685Q521g877A5387R926D456L44i175
127719A2690a0605J706D89M938h765L08C2991I332b2467F822f188j189k012E727
127734h846n817B0850i517l887A0311f115k886A4339a9224I62J728a7973a998
127748G912M030e66B1732B85i489A6846i8B4758d393k71m367J4B167J1004b3595
127764A7671q14a2495e106D222b00q913k146I604b2405A2385B886b681B0978D028
127779D131A432Q106g450A9282H060l563d869H727e718K418R16j2573c770D778
127794a1989J063j5811a701B327b8034D898A794D09P507K27a8279A2576M066a6296
127809e837k2388A0536a3373C298a8206i076g59F591j217c416B713a82A3540E518
127824f680F691J6553D387J5544I352J334e806B779a6873D882a454B665G12b380
127839a3738Q19F271N672P003c487A550i206G805J293e788B922a2501D483R880
127853A4363I41b26C3415C192L131K847l113b7248k897h156l081A3345e625N71
127867e054I692f03j176j53j3003B666a0012H956b3849F280a0161G727b0207C788
127882B0881m121B645L191r33h267D440o68e673C579g518D884b633H581K466b57
127898a0413M333K55A3184f28D029a6390e725I757a142A0636D754g130A5580G043
127913E657a1048l42F092j268i757J900K768C340i522M236B204f113C804J3556
127927A7360a1881M470C0490c765j0286C5212a2005m86p695L506f259A1734e742
127941B3385c076J523A3568k846f584a40A884J751J200J7337a3729K051N437n23
127955f764k975A2458J2699b0524Q703B2405a76j0813B8112f669k725A4612J169
127968A5781m50a2374A4123h90k368p296I38J1223E748a4681e624K574j5090D363
127983i078A4308m998c149A6545D758j797a6572F887i27l527B7421a9350L135
127996a6215a187j6701B0231A974a0537A3752F778b185j2874D444b8684i131l960
128009a3091r981B8325a685k085k2407a0803J845k849A1745E084J0456a0206k084
128022a2290J124b748A0286k600h059I616l368d072j7154A1181b391B2693a1128
128036a002n750M17B182c999h00j2384A3784g298L378h95I996a2505N816F170
128051f121j0941C277d427a170A67e346A142a1337A9082e736M76J296B2523A458
128066G263l159B91J8069C591a8677C789b2985B4323o614G175a312n899i43j1960
128080a2903c477j3191F639R343A47a2824A4950k937a7410P681j743D35P526N805
128094A3766g79A804f988A0443a6632d513M59a46A16b588E758a0493A0936e280
128109a6529D878M462a8674H953H40K251J2237c282B266e363A563a5645B976N172
128123H148K835J9321A0521O169J688K1056A2920m636N998E76J9737B238b8987
128137I510Q781f661I498a1363j5185f102j4377F629J967a4040F347K595g016
128151a3622B155a7497B48a3818A6690c695l131D78L442b7899a3648A2321j322
128164A0999P418d980j1958c302G779a0476G377L705i401m033J901G584e330G508
128179h870j5565B0586A168J245K6099b9610e782C172P47a918A0330K465a279
128193F125K0600F745j037d38n252a590G674P550G492a2207A4055K701A713K3127
128207B4840a1508l276B3001f543j8795A4287b6495L819K526G630h610E54a2073
128221D173N768d656A8354e792B943J2894C827J2556a002A7844D120e105C910
128235a657C7049a2094H831b1925a669j2143c054A1623e956F73i505A2941j995
128248A0946a0407A2349M670l90D406h188B443J4588G538f895B2793C012J2330
128261A5342K188a4178I773L070B290b761A0269a774E518J1984h69l4125A3566
128275a212p946C831d687B451a4667P254J567C1217E726i606o915A0135K23M882
128289A5240e444B1254a664I117a2484H225m066a3635I935a0260K325A0961b2263
128303A2291a3550A1347b969L66G130G82a4377B785c25D194c128r499B0548a482
128318E107b171B4945c598j1782A4885a6137C968c685A806c470j5743g946L165
128331d781k546B1809F47J1905k307H21b44C1P560a6477I173a2141A237g625o056
128346a3681a171G90J3870M668m497l404j044Q696l672a6070A6854b2964I676
128360c114j2356B643J0280a22q309B2642a9147N659l796f858A52R658M717f178
128375a2601E444j294J1404G605f484K337R20A2247a5245O958G95a289o250p035
128389a4574A3447a0525A159M062J095g646A4170k399a2355D177L230h263A5462
128403a439D212D43a3137A5411a0556A0056b162A7772o464D894d286k8203a944
128417D810N377O973n735C012a5084b587C357a1633E637J6800d732a983A0913
128431C975h233o441c331j1847j0904f016K212I523k206e027A8559B593L71a0313
128446A4367h511G799a9441d849G254Q67h121A642i073b162j0112j2665O333A3496
128461B9444A1492k899O896C383e107j6554E505A215i493b878A16a8986D743b3492
128476F078L920K195k106d603H44R60o32O805a3021c619B168b994B119a1091L571
128491g520B5839a5090M337h17A5362A904L320b4760a228l029C1873j3398D292
128505B5797a1283D605L401H68O828R777a4224n720A9772c332A2175D218j846
128518B372b992m608A4462b54q952H073a1906N589B278e587j2003f627F184i344
128533H858a1181G37J9835a2607B321J2179L444d427B227M046A388g863L757B080
128548a3121k675A8213O31G870K5739j6136G66Q847p44a9558B822e743A0021A283
128563b3629g22G755f141G996a739K75j4777F54M606M943f672j081c768q100N215
128578f653A5640a1415E929e912j4313b842j2393A9986a7152a567j6070j102O291
128591a2448j991c018A681C30a1081A162b2848f330B68g370B6511b6484H825a3589
128606e248j7538J1388F649K739D14e894j246A6781K353E558c041B288g450n720
128620a3170q661C120m96c810a401n323n303H807C662D60J8818B579a449A2295
128635A2388J953b1587P619B407d21o918D488a7884a165j5883a861p653D619a0578
128650A6185J435M83J992a3360r153D190Q035a9162A4730a4411J079F722A719
128664g273j080B747Q456b0564b824E286A977O110c3811B7132A1711D333J6780
128677B1113l362D786L912B953b514A1527b4374C450N84a6945d255A6052m530
128690A1522a3495l804d928I36a214m215e17k6123A0721i180l042B274J805b9652
128705a6359i7j867j5398A3973o277J2454a9638l293A791K845l07J2393E783j593
128719D190K2806j2315B416g187q705a491C221L022J2110A120L214a6378p024
128732b3402D412i449A0682a4246d766F290f203A9790h935E885i96A1895b559
128746A0294g396E582i996F708f000j0831B769J2242A276e655I498L276D913J6073
128760B0986H088C763d013A241M895j436K379c42j0152I044b4602J1799I458a573
128775i218G55M342b6857d52A6297d041A337g671A051d769F774Q848A950L963
128789E913f45j239B086J2538a4382Q1A6027J028k021k492b3810C700a6556C670
128804h948m458C371c0705e165A4208i605L620b716j4888N724B0251r623m629
128817E999b1934H03K328O891b40E968k261e575E23f861c366H075k53K1857d312
128833A9045H37J4390G424c9615E585b2907h502F689a0313I175R745A913Q840
128846A0753b2643g63p271a811A3653k090b0479B1698c694I066a509k5096c073
128860a757n804o16F858i208A368Q522F26N451J5806a1741q676A558Q969D227
128875b269B015a5152C106J2523o026P38K151a0564E103a4798r873C251R192L710
128889A6153G704L004a1558A8777f615n436d033B0576c254k4118A7947d413A5875
128903b945A1304c288B1607P22d488C205a7344A7098p889b0704f28l765k277b705
128918A9632q015D178j527a9901A631O580a8824b080k732j4647d231A4849D40
128932A5208F191k84a0970B0502F272g967B1088i539A3668a609A175g941e58A7063
128947g911A4294m442a5436N787D284a7808e061H031d884A4571a2020j4341e419
128961d112N23B011a2766K183p26b200j0904D658f262a011j0578e533J880A2291
128976e523C7303a2440e889E823a5298c065E196N120a8866b456A504R588a6042
128990i67j4019B0578b917D556N832D186O603D285f330A4903h019D218a907e65
129005A899K194a173j4148A763Q818a3211A1254a1601E518P432C428a4402D814
129019A3314C198p18J2874m767O793c254A1026N176j883K479k390J2429h881m273
129033a3154G888d012l287l8792i999j019j1136J276c122m315n593A3504a5569
129047A0365a4771D477L004b2743A5068C391b603A7467c4451A9277m512A605a2098
129061c656a780j3526N28m248c36A0907a0100L82k629c330a011B883K0217D221
129076e425j4635b069o012A166K0789e102o29D723M573B021Q707C976g310G070
129091a4136e837l892A786J8862p926C66M9O182a529j6494f552j818F812a5901
129106e683C756O735a376j1296a583D019m69g413B3512H127h456j8531j230A5249
129121a3144H60b2559E98K0531F685d546A530N946a0207A1659B909J2240i395
129135B2904e773l748B122Q927m980B958i171d042J434E303e894o862c027m311
129149g338b067r299C205q49d448G606K954l183N728M140f705D716J9312o05H218
129165d617j044B21N755A981a7005E64M568Q902j944d771I930O692c11o149I120
129181I61a4444H409L910a597r880J89l838D439c775J92J240C017R754n038B023
129197d31C921B50J6847B527b369r401G582i439A7431e923E450A807g946B3483
129212c083A47d588k784L434A1319J2182a525E326M82f675j658E720O801g433
129227A3812j745i495B9714r623a0226n408M430A5124p428g949A267M875J353
129240G495e468b274A2607F043e807j928c250A1207G83Q919c585F959M407A752
129255B112a4246A2562b072j3866n671f233l760q425A2905a0030I146k666L228
129268I708d455B851a9601C371a4000D069a2119C054d325a413A4410d301J56A7519
129283a0220o400L890H634a0874A7155k078J875a5898b698J021r63I284e488j1382
129297a6870a326j9212E712c697k628A899j90K1230D277j390A049K7515E882R288
129311A5170h740A6627R276B291J0689h118A93R970i176B538J5064m218n428i007
129326A4143o220M563a0230A0934a406l625a485j996Q73I48J0588n282e667L41
129340e326r987F339e999A033J1058a9658G021b528m264j816i18B1386d445E907
129355a6582D833d033D628J168c93k2828C50J3661C270P822L524K00d54E420e857
129371A2918n614b082E273k570P724f746j887J999j0946g02C372Q914j260g221
129386a776m002C221e09l262H696C441L654b296j794A253a0111c262m477k187
129400i926A6482a525l177A1205e830j5010R782N036k291m713C3155a0841C844
129414C746a5963O345B3757a3544A0837a1042B8887G65b0233B5K22N913b1485
129428E90d716j0756B4242a8381B2645c808q177A4883e763D643a6668B1619a6522
129442B053g120A934b2088J0001I765a084B394g659B0175e749F34J2484E541K266
129456G807J0337r009J5866a6020B494J1600E032N243B871c6778g688j982L044
129469f626j0100A9940F073K1868b663j2893I074b2458R443A9955f008A2188a352
129483F57f570G176d061D974d537a212I884J3299h365A2205A129a200k111B3332
129498D825j341a2216N052B6647a2487G596l120j713a3624C798M202K03b3063
129512a870l8468e121j5670b223F300a5593A9433a07F570L388o14R770a7146G082
129527I112Q306a3451F946i439o562A777a685p219c891j822j4515f250c069q27
129541c896J791H323l046M724O522a1917C454a2435A4231D100N795O510a1622
129555i65j0931j2792A1655O211A429a4492G884a333j8905A5503h0j8437b23B49
129570d488A6830a2106N034D388K213L611a5609A9796n732Q396B999g016B096
129584c428G957i404D853e824j2010B685a6932f827F731q02M843f426m608e509
129599A2888d835j378F886J0011g995A4132a93F283R97f464B1286H16c087E070
129614a0417M916a792o408F740J6424I907ra0226E653B02a3685O788j7867c381
129629C741O250k604f141D488M707D353i377K161q29b823j5618c313A9826r299
129643A0527A141a0022E13J045c0193F368a471N41r652l889a431n120F203a0819
129658A0764e561D5214F723b6442j375A565J5334D844A796f820E435a201C492
129672A7119q33b6295c298A929Q07h042B113a2141l041H364f069l805A0911B212
129687a5103p404D220P818a657q345K723B4883o384i328q474c822m346A6685l018
129701A3667a331N69A8042R942e53G692a0285c206p971L92R5B1829L076A0737
129716a2913N543A0428a4687c428k0538E537i74I67a4161O600B5231D486C24a782
129731A1642e334B026a1711j2217J0007A87a946r487A0739a849p780l009a163
129745a5148C317Q593K944h62A3341a38j144A0500k343a2087C446N392a6742H008
129760B6503n04L770I231j278Q979C896K1057a0772A3764a9570C3938b224D164
129774b7722a0732C096J558e344j2524B3214G993a5407B289c934q572E087Q739
129787A3826a6174D418h059r664A4962B225h793B0339E985b285B6131a1230R08
129800a0322B7726D368a091B1772G062P18h419D32J3767h860B634M863B671a5558
129815a9648B2805i089F313J1074D517m55R772J3857A1418a2078J41F83L3867
129828C4550c368B9744k156g920B2008b3566h732F258P765b8656i537E852e226
129842c524A0353C516b027f4D409f765A2814a4560I04a036j7130c265A949J1259
129856A3208A733a4300i45l067k92j3003a617F576a946A0125e544n455H80O420
129870G300R20f688p334A97J44g647A8221H823L997j133e733j7983a0133j718
129884a1851A7853H30O026k766N230h202j2650A8582a8111M284j356I359P98C307
129899A2984D917R66J19a5284A2356P035a651A0693b1648I556L022a139A2252
129913i293C192J951K0230B707a0125G003c325B5316F584a3042c245f75D178a0460
129928i431D476M587d251A8801d778C219a1989B400f12B177J0503d977B1112C140
129943f639F072a7305B1291E578J7109g526k328j651a073j6124H53a1312N083
129956f229b528a251j2390h99A7549G030J1943b0561B063N960M469n238M477f398
129971b537A4976D814f387H084M256K406M683G088A453J7629P23G715g43C0111
129986B3065a3326N691C118g936D489N825D529K3337A3869c0792b990B2591j0546
129999A2045f716p965f505A8109b179q946A3471m449i25j2529H351P209D210N324
130013I534c585j0294o452C969J2575B586I39b6206b181A3162b2676A0142b716
130027B9519h389A4740Q621G937J763C488J5151B266c217p97G884k009N358a3746
130042b052D469d91A6804m756M7O033a7560E386O061d884E31e030H023M258a9564
130058e595K111C685b5858d201r514d095C567a729k959a86A6578a2625d131A4516
130073E861J3574G959J1797j972a8980A7328h671H412M26B347L497b5745J1736
130086a4009H560M687m259A274a0716j7461a694D611J5943F732k289a639B656
130100A8284B827M568g620j3932B72O159d924A9258b473G80J7764a4565G039M022
130114A1061e897b925a19j0731B0428d416k2021A5509a99A7685c764G249C155
130128H339g546k653m545A0046C964b651q368D794a1391B4837A58R267J4500e374
130143a428n796J473I13c42j2641m127f269L034A507a6295O314A3037d143@h703
130159e713K545m78A0698a8129A1091b6320F368Q028c313A736d1116c327B8866
130173D066L071a6045A5102h841q436d766G710d437E531e645k583B7820E671O013
130187A1684E599N598b8762E766Q579K576F075B428f753A9424E651l51j132a5519
130202h351g16H288J0295k28b4149h60D368b4205D056lc690H42e745j7599H490
130218I586a8515G59M88Q848J7399a2476b232N99L06C977K2888a2617B2528d380
130233A1183e14n628B2762D931O369l51m537J068a95n63I863a4018d357Q92H166
130249A565b4344e205Q35J207j698A3582a799C655K1458d762E223lb45G911L1491
130264C9402A5098o153D64a5632K975e856G348A310i940C0878H891a1660N200
130277f460H684b997j146j3111g392J772j7567A1347b681n219C490f911A2155
130291C974N573k80B518L2294c709B3181H433J660m529e012A267F29M807d81r329
130306i810F521e033B9950r583J060h568I000k072K011a1316A1076R018E314N152
130320A0466E12M030J1497a447C309c260I729l314K726d243C63K3842a2477c642
130335a3311K830l074I443D688a923A5599D254e819o0B3210o343d536p6j5212
130349a9824i243C309h321B848J1232J0912f459k115M082H835A288M354P094R78
130363A3714M86b930B440a4178A1156C77J2131A95J4621B459L627J1771F0g582
130378A5173a3109E994A914a835l371H928a2399M648l922c026H74b52m636j921
130392f809B835a8456K439j887A4397E832K484N575o907B004h333k1174i004b362
130407a1238d754E158j087d078H184h651C859h039K950j7590d464a627A0738a5968
130422A2379E6J2278B060J999e107b75j8362A7837a7381D661g881j7674f866b12
130437a3235M050I67a4419d375r0B1171G718g630A0456C355a3382A9742L273a452
130452F237P746h17k340A8785J912p780C551O835m865R328a4600K416B061L129
130466E190J180a475A6704a844r179c257A1564H57J7465n261c017j819E749J3354
130480A9103M934F081d969q705B962f005J224R84p607e337R67a426j0376J183
130494a0619F118l010A292N544J0803F652a3523c829a739r09k3207H173K331A758
130509f131A8416H393M121K3256A7756d211C826i215C035Q66g120A9201p994a2213
130524E386g018n612A2394j549D661b134P40m11C1090A4377b2101A4497a6866
130538A1885A745J6575o097b0203E575Q30a1539a834n829p059D74Q689J084k973
130552G274b2760L013B30O633M648d117k250A4096Cc676E312J1379j522a1413
130567a6071A7882c828A3078f241k022j2598A523N673b510G095a2322D297L926
130580H223B981a079A1645b749C2247I391Q333a242F202B553a0562A3096l035
130593A0061a995D001J1632A118O733b2152C5731C459b269F050g230b70l0125
130606c0395J5144j4451A4858a1418B0840a897p937G793A547R712E567b492D296
130620A9813Q17a6901G98P8h848q406b613A1104b336r45A1618p22e227A5343A872
130636f0n144j2374P035F073b142n997B564D57c74E125a0277M457J641K044n902
130651h037j1128B40a8799j5120A2594d100H487d713k199A8324a1553A8511f510
130665A0563D552K074J184C225c741j3211O057C548f158A1450a2690A3368D438
130679E637k672j458J0438B274a5884e331b136r386C524l80A066b8810b237G150
130694B2143a9042q344a2331q739A5569a4977F212b5471A1697b4936g601b492
130707A742K770a4656p500C0235a999A240f339G190B083c243r852l93A3678c897
130722a7340I019P359c37k3235A508b472o174H191e592A7611C448j55K940a4908
130737e15j6184c522j3388F317P562a4285a699H18d285C16i174j5477e062C773
130752A0240a922r21r136L237k0131a4036e501g03G16b169n313A5005C619i423
130767i169A6834e821k040r83m778N596E016E22e695D951J1975e752A2363a023
130782g348m571F692J163a5620cp128a666L73A415a483j9898a081m362l785C922
130798c154A4242R916I91P66a1852e369C857N761h475D246g122j4286E682a7749
130813B995h088A3802C323R073c2168d076m598j019o286B734J8756a4738o337
130826b1075i22C3708B343h911F9O827a6621p660A8380p275A75a9245m881A0461
130841d198r525K507B3664a1076I193b038j1884D065J352M109B106Q452b793A7423
130856a4045a085A3649k462a4772J288F459a4830F404Q38g31F618k94J1347b330
130871A1501K64i886M815M89A4597A808J087Q362a5744j5077e730G692O8C156
130886h66j529n560J142L72F964K6763g96H341e201B936N524j430A639J2126C159
130902A1887J487m026L742a7018A7034c040A5518i827M37A0506C208b7157A2353
130916D230J286M772A668K0168c5592a1341A3765K278B828J6254F212f964p506
130929a4470L390a669l97C237b380C0039a89A0758c61B975b7059a2825A2572E448
130944i742k879A1550c360j7405f016A4355A117h860A1637A23L3489F465a0459
130958B1094B757a556o963A0419E89h82B348K138l75A587a497d10A0202a978A341
130974e620F361k220b0031M482A526b4385A4801o594a1408b19A1127a6671B0314
130988A425a0904M634N39r704e268A7497A538L864e247F50a987n864H014M00b3440
131004a4287B130d690F115M984a385j2372N664E411B457P662q22m101N555a0j8014
131019a8024j472M164J077F419J2873A944P842a7434A0514a786E142e915j6356
131032b2271B4706f085j4850g416j5506R266A5888a4334n627N057H063J762J4464
131045B4289A0114K225a5668a197G296a3556d314n121C719A481M286a0084a743
131059C2722b1102I389a2680B779e273j6121a0380a950p539r031j1383f878
##END NTUPLES=NMR FID
##END=
