##TITLE=H,H COSYgp BBO
##JCAMPDX= 6.0         $$ Bruker NMR JCAMP-DX V2.0
##DATA TYPE= nD NMR FID
##DATA CLASS= NTUPLES
##NUM DIM= 2
##ORIGIN= Bruker BioSpin GmbH
##OWNER= NMR_mess
##LONG DATE= 2016/12/02 14:10:13+0000
$$ 1.90.2.2 TopSpin 3.5.b.91 pl 7
$$ 2020-03-04 19:30:47.742 +0100  nes@nmr-nesnotebook
$$ Compression mode = diff/dup
##.OBSERVE FREQUENCY= 600.20138046
##.OBSERVE NUCLEUS= ^1H
##.DELAY= (6, 6)
##.ACQUISITION MODE= SIMULTANEOUS (DQD)
##.ACQUISITION SCHEME= NOT PHASE SENSITIVE
##.AVERAGES= 2
##.DIGITISER RES= 23
##SPECTROMETER/DATA SYSTEM= spect
##.PULSE SEQUENCE= cosygpqf
##.SOLVENT NAME= DMSO
##.SHIFT REFERENCE= INTERNAL, DMSO, 1, 5.150327
##AUDIT TRAIL= $$ (NUMBER, WHEN, WHO, WHERE, PROCESS, VERSION, WHAT)
$$ ##TITLE= Audit trail, TOPSPIN		Version 2.1
$$ ##JCAMPDX= 5.01
$$ ##ORIGIN= Bruker BioSpin GmbH
$$ ##OWNER= NMR_mess
$$ $$ /opt/topspin/data/NMR_mess/nmr/Prakt_Gr1_MethChLA/5/audita.txt
$$ ##AUDIT TRAIL=  $$ (NUMBER, WHEN, WHO, WHERE, PROCESS, VERSION, WHAT)
(   1,<2016-12-02 15:17:58.276 +0100>,<NMR_mess>,<av600.nmr.uni-koeln.de>,<go>,<TOPSPIN 2.1>,
      <created by zg
	started at 2016-12-02 15:09:54.452 +0100,
	POWCHK disabled, PULCHK disabled,
       configuration hash MD5:
       B8 5B 0F 6D 72 6E CD E8 2C BF 54 C4 C6 7B 61 10
       data hash MD5: 2K * 128
       1C 0B 50 16 6F 3A 83 4B E3 C3 B4 4E 93 6B 09 08>)
$$ ##END=
$$ 
$$ $$ hash MD5
$$ $$ 90 1D A0 2A C5 8B F5 5A 9C 80 47 F8 35 75 17 60
##$RELAX= 
##$BRUKER FILE EXP=format.temp
$$ EDIT_PAR COMMAND FILE
$$ 
$$ DI_MODE         LONG
$$ ED_ENTRY        ACQU
$$ ORDER           FILE
$$ 
$$ 
$$ HEADER		"F2 - Acquisition Parameters"
$$ T_NAME		Date_
$$ 		TYPE	R64
$$ 		CLASS	ACQU
$$ 		SUBRANGE 0.0 50000000
$$ 		REL	"Date_=itodate(DATE)"
$$ 		INV_REL	"DATE=datetoi(Date_,DATE)"
$$ 		FORMAT	"%14.0f"
$$ 		TEXT	" "
$$ END
$$ T_NAME		Time
$$ 		TYPE	R32
$$ 		CLASS	ACQU
$$ 		SUBRANGE 0.0 1000000
$$ 		REL	"Time=itotime(DATE)"
$$ 		INV_REL	"DATE=timetoi(Time,DATE)"
$$ 		FORMAT	"%14.2f"
$$ 		TEXT	" "
$$ END
$$ NAME		INSTRUM
$$ 		TEXT	" "
$$ END
$$ NAME		PROBHD
$$ 		FORMAT	"%14.14s"
$$ 		TEXT	" "
$$ END
$$ NAME		PULPROG
$$ 		TEXT	" "
$$ END
$$ NAME		TD
$$ 		TEXT	" "
$$ END
$$ NAME		SOLVENT
$$ 		TEXT	" "
$$ END
$$ NAME		NS
$$ 		TEXT	" "
$$ END
$$ NAME		DS
$$ 		TEXT	" "
$$ END
$$ T_NAME		SWH
$$ 		TYPE	R32
$$ 		CLASS	ACQU
$$ 		SUBRANGE 0.0 1e8
$$ 		REL	"SWH=SW*SFO1"
$$ 		INV_REL "SW=SWH/SFO1"
$$ 		UNIT	"Hz"
$$ 		FORMAT	"%14.3f Hz"
$$ 		TEXT	" "
$$ END
$$ T_NAME          FIDRES
$$                 TYPE    R32
$$                 CLASS   ACQU
$$                 SUBRANGE 0.0 100000
$$                 REL     "FIDRES=SW*SFO1/TD"
$$                 INV_REL "TD = nextpow(SW*SFO1/FIDRES)"
$$ 		UNIT	"Hz"
$$ 		FORMAT	"%14.6f Hz"
$$ 		TEXT	" "
$$ END
$$ T_NAME          AQ
$$ 		TYPE	R32
$$ 		CLASS	ACQU
$$ 		SUBRANGE 0.0 1000
$$ 		REL	"AQ=aqcalc(SW,SFO1,TD,DIGTYP)"
$$ 		INV_REL	"TD=tdcalc(SW,SFO1,1.0e6*AQ,DIGTYP)"
$$ 		UNIT	"sec"
$$ 		FORMAT	"%14.7f sec"
$$ 		TEXT	" "
$$ END
$$ NAME		RG
$$ 		TEXT	" "
$$ END
$$ T_NAME          DW
$$ 		TYPE	R32
$$ 		CLASS	ACQU
$$ 		SUBRANGE 0.0 1000000
$$ 		REL	"DW=1/(2*SW*SFO1)"
$$ 		INV_REL	"SW=1000000/(2*(0.005+DW)*SFO1)"
$$ 		UNIT	"usec"
$$ 		FORMAT	"%14.3lf usec"
$$ 		TEXT	" "
$$ END
$$ NAME		DE
$$ 		FORMAT	"%14.2f usec"
$$ 		TEXT	" "
$$ END
$$ NAME		TE
$$ 		FORMAT	"%14.1f K"
$$ 		TEXT	" "
$$ END
$$ T_NAME		D0
$$ 		TYPE	R32
$$ 		CLASS	ACQU
$$ 		SUBRANGE 0.0 1e38
$$ 		REL	"D0=D[0]"
$$ 		INV_REL	"D[0]=D0"
$$ 		UNIT	"sec"
$$ 		FORMAT	"%14.8f sec"
$$ 		TEXT	" "
$$ END
$$ T_NAME		D1
$$ 		TYPE	R32
$$ 		CLASS	ACQU
$$ 		SUBRANGE 0.0 1e38
$$ 		REL	"D1=D[1]"
$$ 		INV_REL	"D[1]=D1"
$$ 		UNIT	"sec"
$$ 		FORMAT	"%14.8f sec"
$$ 		TEXT	" "
$$ END
$$ T_NAME		D13
$$ 		TYPE	R32
$$ 		CLASS	ACQU
$$ 		SUBRANGE 0.0 1e38
$$ 		REL	"D13=D[13]"
$$ 		INV_REL	"D[13]=D13"
$$ 		UNIT	"sec"
$$ 		FORMAT	"%14.8f sec"
$$ 		TEXT	" "
$$ END
$$ T_NAME		D16
$$ 		TYPE	R32
$$ 		CLASS	ACQU
$$ 		SUBRANGE 0.0 1e38
$$ 		REL	"D16=D[16]"
$$ 		INV_REL	"D[16]=D16"
$$ 		UNIT	"sec"
$$ 		FORMAT	"%14.8f sec"
$$ 		TEXT	" "
$$ END
$$ T_NAME		IN0
$$ 		TYPE	R32
$$ 		CLASS	ACQU
$$ 		SUBRANGE 0.0 1e38
$$ 		REL	"IN0=IN[0]"
$$ 		INV_REL	"IN[0]=IN0"
$$ 		UNIT	"sec"
$$ 		FORMAT	"%14.8f sec"
$$ 		TEXT	" "
$$ END
$$ HEADER		"======== CHANNEL f1 ========"
$$ NAME		NUC1
$$ 		NONEDIT
$$ 		TEXT	" "
$$ END
$$ T_NAME		P0
$$ 		TYPE	R32
$$ 		CLASS	ACQU
$$ 		SUBRANGE 0.0 1.0e10
$$ 		REL	"P0=P[0]"
$$ 		INV_REL	"P[0]=P0"
$$ 		UNIT	"usec"
$$ 		FORMAT	"%14.2f usec"
$$ 		TEXT	" "
$$ END
$$ T_NAME		P1
$$ 		TYPE	R32
$$ 		CLASS	ACQU
$$ 		SUBRANGE 0.0 1.0e10
$$ 		REL	"P1=P[1]"
$$ 		INV_REL	"P[1]=P1"
$$ 		UNIT	"usec"
$$ 		FORMAT	"%14.2f usec"
$$ 		TEXT	" "
$$ END
$$ T_NAME		PL1
$$ 		TYPE	R32
$$ 		CLASS	ACQU
$$ 		SUBRANGE -6.0 1e38
$$ 		REL	"PL1=PL[1]"
$$ 		INV_REL	"PL[1]=PL1"
$$ 		UNIT	"dB"
$$ 		FORMAT	"%14.2f dB"
$$ 		TEXT	" "
$$ END
$$ T_NAME		PL1W
$$ 		TYPE	R32
$$ 		CLASS	ACQU
$$ 		SUBRANGE -6.0 1e38
$$ 		REL	"PL1W=47*pow(10.0,(-6-PL[1])/10.0)"
$$ 		INV_REL	"PL[1]=-6-4.3425*log(PL1W/47)"
$$ 		UNIT	"no"
$$ 		FORMAT	"%14.8f W"
$$ 		TEXT	" "
$$ END
$$ NAME		SFO1
$$ 		FORMAT	"%14.7f MHz"
$$ 		TEXT	" "
$$ END
$$ HEADER		"====== GRADIENT CHANNEL ====="
$$ NAME		GPNAM1
$$ 		TEXT	" "
$$ END
$$ T_NAME		GPZ1
$$ 		TYPE	R32
$$ 		CLASS	ACQU
$$ 		SUBRANGE -100.0 100.0
$$ 		REL	"GPZ1=GPZ[1]"
$$ 		INV_REL	"GPZ[1]=GPZ1"
$$ 		UNIT	"%"
$$ 		FORMAT	"%14.2f %"
$$ 		TEXT	" "
$$ END
$$ T_NAME		P16
$$ 		TYPE	R32
$$ 		CLASS	ACQU
$$ 		SUBRANGE 0.0 1.0e10
$$ 		REL	"P16=P[16]"
$$ 		INV_REL	"P[16]=P16"
$$ 		UNIT	"usec"
$$ 		FORMAT	"%14.2f usec"
$$ 		TEXT	" "
$$ END
##$RELAX= 
##$BRUKER FILE EXP=scon2
$$ ##TITLE= Parameter file, TOPSPIN		Version 2.1
$$ ##JCAMPDX= 5.0
$$ ##DATATYPE= Parameter Values
$$ ##NPOINTS= 1	$$ modification sequence number
$$ ##ORIGIN= Bruker BioSpin GmbH
$$ ##OWNER= NMR_mess
$$ $$ 2016-12-02 15:09:54.351 +0100  NMR_mess@av600.nmr.uni-koeln.de
$$ $$ /opt/topspin/data/NMR_mess/nmr/Prakt_Gr1_MethChLA/5/scon2
$$ $$ process /opt/topspin/prog/mod/go
$$ ##$BLKTR= (0..15)
3 3 3 3 3 3 3 3 3 3 3 3 3 3 3 3
$$ ##$DE1= 4.5
$$ ##$DEADC= 0.5
$$ ##$DEPA= 4.5
$$ ##$DERX= 1.5
$$ ##$FILCOR= 0
$$ ##END=
##$RELAX= 
##$BRUKER FILE EXP=spnam2
$$ ##TITLE= /u/exp/stan/nmr/lists/wave.dexam/Gaus1.1000
$$ ##JCAMP-DX= 5.00 Bruker JCAMP library
$$ ##DATA TYPE= Shape Data
$$ ##ORIGIN= Bruker Analytik GmbH
$$ ##OWNER= <demo>
$$ ##DATE= 01/05/08
$$ ##TIME= 12:57:44
$$ ##$SHAPE_PARAMETERS= Type: Gauss ; Truncation Level: 1 
$$ ##MINX= 1.000000e+00
$$ ##MAXX= 9.999954e+01
$$ ##MINY= 0.000000e+00
$$ ##MAXY= 0.000000e+00
$$ ##$SHAPE_EXMODE= Universal
$$ ##$SHAPE_TOTROT= 9.000000e+01
$$ ##$SHAPE_BWFAC= 2.122000e+00
$$ ##$SHAPE_INTEGFAC= 4.115776e-01
$$ ##$SHAPE_MODE= 0
$$ ##NPOINTS= 1000
$$ ##XYPOINTS= (XY..XY)
$$ 1.000000e+00, 0.000000e+00
$$ 1.018591e+00, 0.000000e+00
$$ 1.037490e+00, 0.000000e+00
$$ 1.056700e+00, 0.000000e+00
$$ 1.076227e+00, 0.000000e+00
$$ 1.096073e+00, 0.000000e+00
$$ 1.116245e+00, 0.000000e+00
$$ 1.136746e+00, 0.000000e+00
$$ 1.157580e+00, 0.000000e+00
$$ 1.178753e+00, 0.000000e+00
$$ 1.200269e+00, 0.000000e+00
$$ 1.222132e+00, 0.000000e+00
$$ 1.244348e+00, 0.000000e+00
$$ 1.266921e+00, 0.000000e+00
$$ 1.289855e+00, 0.000000e+00
$$ 1.313157e+00, 0.000000e+00
$$ 1.336830e+00, 0.000000e+00
$$ 1.360879e+00, 0.000000e+00
$$ 1.385310e+00, 0.000000e+00
$$ 1.410127e+00, 0.000000e+00
$$ 1.435337e+00, 0.000000e+00
$$ 1.460942e+00, 0.000000e+00
$$ 1.486950e+00, 0.000000e+00
$$ 1.513365e+00, 0.000000e+00
$$ 1.540192e+00, 0.000000e+00
$$ 1.567437e+00, 0.000000e+00
$$ 1.595105e+00, 0.000000e+00
$$ 1.623202e+00, 0.000000e+00
$$ 1.651732e+00, 0.000000e+00
$$ 1.680702e+00, 0.000000e+00
$$ 1.710117e+00, 0.000000e+00
$$ 1.739982e+00, 0.000000e+00
$$ 1.770304e+00, 0.000000e+00
$$ 1.801088e+00, 0.000000e+00
$$ 1.832339e+00, 0.000000e+00
$$ 1.864063e+00, 0.000000e+00
$$ 1.896267e+00, 0.000000e+00
$$ 1.928956e+00, 0.000000e+00
$$ 1.962136e+00, 0.000000e+00
$$ 1.995813e+00, 0.000000e+00
$$ 2.029994e+00, 0.000000e+00
$$ 2.064683e+00, 0.000000e+00
$$ 2.099888e+00, 0.000000e+00
$$ 2.135614e+00, 0.000000e+00
$$ 2.171868e+00, 0.000000e+00
$$ 2.208655e+00, 0.000000e+00
$$ 2.245983e+00, 0.000000e+00
$$ 2.283857e+00, 0.000000e+00
$$ 2.322285e+00, 0.000000e+00
$$ 2.361271e+00, 0.000000e+00
$$ 2.400824e+00, 0.000000e+00
$$ 2.440949e+00, 0.000000e+00
$$ 2.481653e+00, 0.000000e+00
$$ 2.522943e+00, 0.000000e+00
$$ 2.564825e+00, 0.000000e+00
$$ 2.607306e+00, 0.000000e+00
$$ 2.650393e+00, 0.000000e+00
$$ 2.694092e+00, 0.000000e+00
$$ 2.738411e+00, 0.000000e+00
$$ 2.783356e+00, 0.000000e+00
$$ 2.828934e+00, 0.000000e+00
$$ 2.875152e+00, 0.000000e+00
$$ 2.922018e+00, 0.000000e+00
$$ 2.969538e+00, 0.000000e+00
$$ 3.017720e+00, 0.000000e+00
$$ 3.066570e+00, 0.000000e+00
$$ 3.116095e+00, 0.000000e+00
$$ 3.166304e+00, 0.000000e+00
$$ 3.217203e+00, 0.000000e+00
$$ 3.268799e+00, 0.000000e+00
$$ 3.321101e+00, 0.000000e+00
$$ 3.374114e+00, 0.000000e+00
$$ 3.427848e+00, 0.000000e+00
$$ 3.482308e+00, 0.000000e+00
$$ 3.537503e+00, 0.000000e+00
$$ 3.593441e+00, 0.000000e+00
$$ 3.650128e+00, 0.000000e+00
$$ 3.707572e+00, 0.000000e+00
$$ 3.765782e+00, 0.000000e+00
$$ 3.824764e+00, 0.000000e+00
$$ 3.884526e+00, 0.000000e+00
$$ 3.945077e+00, 0.000000e+00
$$ 4.006424e+00, 0.000000e+00
$$ 4.068575e+00, 0.000000e+00
$$ 4.131537e+00, 0.000000e+00
$$ 4.195318e+00, 0.000000e+00
$$ 4.259927e+00, 0.000000e+00
$$ 4.325371e+00, 0.000000e+00
$$ 4.391659e+00, 0.000000e+00
$$ 4.458798e+00, 0.000000e+00
$$ 4.526796e+00, 0.000000e+00
$$ 4.595662e+00, 0.000000e+00
$$ 4.665402e+00, 0.000000e+00
$$ 4.736027e+00, 0.000000e+00
$$ 4.807543e+00, 0.000000e+00
$$ 4.879959e+00, 0.000000e+00
$$ 4.953282e+00, 0.000000e+00
$$ 5.027522e+00, 0.000000e+00
$$ 5.102687e+00, 0.000000e+00
$$ 5.178783e+00, 0.000000e+00
$$ 5.255821e+00, 0.000000e+00
$$ 5.333808e+00, 0.000000e+00
$$ 5.412752e+00, 0.000000e+00
$$ 5.492661e+00, 0.000000e+00
$$ 5.573545e+00, 0.000000e+00
$$ 5.655411e+00, 0.000000e+00
$$ 5.738268e+00, 0.000000e+00
$$ 5.822123e+00, 0.000000e+00
$$ 5.906986e+00, 0.000000e+00
$$ 5.992865e+00, 0.000000e+00
$$ 6.079768e+00, 0.000000e+00
$$ 6.167703e+00, 0.000000e+00
$$ 6.256679e+00, 0.000000e+00
$$ 6.346705e+00, 0.000000e+00
$$ 6.437788e+00, 0.000000e+00
$$ 6.529937e+00, 0.000000e+00
$$ 6.623161e+00, 0.000000e+00
$$ 6.717468e+00, 0.000000e+00
$$ 6.812866e+00, 0.000000e+00
$$ 6.909363e+00, 0.000000e+00
$$ 7.006969e+00, 0.000000e+00
$$ 7.105692e+00, 0.000000e+00
$$ 7.205539e+00, 0.000000e+00
$$ 7.306520e+00, 0.000000e+00
$$ 7.408642e+00, 0.000000e+00
$$ 7.511914e+00, 0.000000e+00
$$ 7.616345e+00, 0.000000e+00
$$ 7.721943e+00, 0.000000e+00
$$ 7.828715e+00, 0.000000e+00
$$ 7.936671e+00, 0.000000e+00
$$ 8.045819e+00, 0.000000e+00
$$ 8.156166e+00, 0.000000e+00
$$ 8.267722e+00, 0.000000e+00
$$ 8.380494e+00, 0.000000e+00
$$ 8.494491e+00, 0.000000e+00
$$ 8.609720e+00, 0.000000e+00
$$ 8.726191e+00, 0.000000e+00
$$ 8.843911e+00, 0.000000e+00
$$ 8.962887e+00, 0.000000e+00
$$ 9.083130e+00, 0.000000e+00
$$ 9.204645e+00, 0.000000e+00
$$ 9.327442e+00, 0.000000e+00
$$ 9.451528e+00, 0.000000e+00
$$ 9.576911e+00, 0.000000e+00
$$ 9.703600e+00, 0.000000e+00
$$ 9.831601e+00, 0.000000e+00
$$ 9.960923e+00, 0.000000e+00
$$ 1.009157e+01, 0.000000e+00
$$ 1.022356e+01, 0.000000e+00
$$ 1.035689e+01, 0.000000e+00
$$ 1.049157e+01, 0.000000e+00
$$ 1.062762e+01, 0.000000e+00
$$ 1.076502e+01, 0.000000e+00
$$ 1.090381e+01, 0.000000e+00
$$ 1.104397e+01, 0.000000e+00
$$ 1.118552e+01, 0.000000e+00
$$ 1.132847e+01, 0.000000e+00
$$ 1.147282e+01, 0.000000e+00
$$ 1.161859e+01, 0.000000e+00
$$ 1.176576e+01, 0.000000e+00
$$ 1.191437e+01, 0.000000e+00
$$ 1.206441e+01, 0.000000e+00
$$ 1.221588e+01, 0.000000e+00
$$ 1.236880e+01, 0.000000e+00
$$ 1.252317e+01, 0.000000e+00
$$ 1.267900e+01, 0.000000e+00
$$ 1.283630e+01, 0.000000e+00
$$ 1.299506e+01, 0.000000e+00
$$ 1.315531e+01, 0.000000e+00
$$ 1.331704e+01, 0.000000e+00
$$ 1.348026e+01, 0.000000e+00
$$ 1.364498e+01, 0.000000e+00
$$ 1.381120e+01, 0.000000e+00
$$ 1.397893e+01, 0.000000e+00
$$ 1.414817e+01, 0.000000e+00
$$ 1.431893e+01, 0.000000e+00
$$ 1.449122e+01, 0.000000e+00
$$ 1.466505e+01, 0.000000e+00
$$ 1.484040e+01, 0.000000e+00
$$ 1.501731e+01, 0.000000e+00
$$ 1.519575e+01, 0.000000e+00
$$ 1.537576e+01, 0.000000e+00
$$ 1.555732e+01, 0.000000e+00
$$ 1.574044e+01, 0.000000e+00
$$ 1.592513e+01, 0.000000e+00
$$ 1.611139e+01, 0.000000e+00
$$ 1.629923e+01, 0.000000e+00
$$ 1.648865e+01, 0.000000e+00
$$ 1.667966e+01, 0.000000e+00
$$ 1.687225e+01, 0.000000e+00
$$ 1.706644e+01, 0.000000e+00
$$ 1.726223e+01, 0.000000e+00
$$ 1.745962e+01, 0.000000e+00
$$ 1.765862e+01, 0.000000e+00
$$ 1.785922e+01, 0.000000e+00
$$ 1.806143e+01, 0.000000e+00
$$ 1.826527e+01, 0.000000e+00
$$ 1.847071e+01, 0.000000e+00
$$ 1.867779e+01, 0.000000e+00
$$ 1.888648e+01, 0.000000e+00
$$ 1.909680e+01, 0.000000e+00
$$ 1.930875e+01, 0.000000e+00
$$ 1.952234e+01, 0.000000e+00
$$ 1.973755e+01, 0.000000e+00
$$ 1.995440e+01, 0.000000e+00
$$ 2.017290e+01, 0.000000e+00
$$ 2.039303e+01, 0.000000e+00
$$ 2.061480e+01, 0.000000e+00
$$ 2.083821e+01, 0.000000e+00
$$ 2.106327e+01, 0.000000e+00
$$ 2.128997e+01, 0.000000e+00
$$ 2.151832e+01, 0.000000e+00
$$ 2.174831e+01, 0.000000e+00
$$ 2.197995e+01, 0.000000e+00
$$ 2.221324e+01, 0.000000e+00
$$ 2.244817e+01, 0.000000e+00
$$ 2.268476e+01, 0.000000e+00
$$ 2.292299e+01, 0.000000e+00
$$ 2.316286e+01, 0.000000e+00
$$ 2.340438e+01, 0.000000e+00
$$ 2.364755e+01, 0.000000e+00
$$ 2.389236e+01, 0.000000e+00
$$ 2.413882e+01, 0.000000e+00
$$ 2.438692e+01, 0.000000e+00
$$ 2.463666e+01, 0.000000e+00
$$ 2.488803e+01, 0.000000e+00
$$ 2.514105e+01, 0.000000e+00
$$ 2.539570e+01, 0.000000e+00
$$ 2.565198e+01, 0.000000e+00
$$ 2.590989e+01, 0.000000e+00
$$ 2.616942e+01, 0.000000e+00
$$ 2.643059e+01, 0.000000e+00
$$ 2.669337e+01, 0.000000e+00
$$ 2.695777e+01, 0.000000e+00
$$ 2.722378e+01, 0.000000e+00
$$ 2.749141e+01, 0.000000e+00
$$ 2.776064e+01, 0.000000e+00
$$ 2.803147e+01, 0.000000e+00
$$ 2.830390e+01, 0.000000e+00
$$ 2.857792e+01, 0.000000e+00
$$ 2.885353e+01, 0.000000e+00
$$ 2.913072e+01, 0.000000e+00
$$ 2.940949e+01, 0.000000e+00
$$ 2.968983e+01, 0.000000e+00
$$ 2.997174e+01, 0.000000e+00
$$ 3.025521e+01, 0.000000e+00
$$ 3.054023e+01, 0.000000e+00
$$ 3.082679e+01, 0.000000e+00
$$ 3.111490e+01, 0.000000e+00
$$ 3.140454e+01, 0.000000e+00
$$ 3.169571e+01, 0.000000e+00
$$ 3.198840e+01, 0.000000e+00
$$ 3.228259e+01, 0.000000e+00
$$ 3.257829e+01, 0.000000e+00
$$ 3.287549e+01, 0.000000e+00
$$ 3.317417e+01, 0.000000e+00
$$ 3.347433e+01, 0.000000e+00
$$ 3.377596e+01, 0.000000e+00
$$ 3.407905e+01, 0.000000e+00
$$ 3.438359e+01, 0.000000e+00
$$ 3.468957e+01, 0.000000e+00
$$ 3.499698e+01, 0.000000e+00
$$ 3.530581e+01, 0.000000e+00
$$ 3.561605e+01, 0.000000e+00
$$ 3.592769e+01, 0.000000e+00
$$ 3.624072e+01, 0.000000e+00
$$ 3.655513e+01, 0.000000e+00
$$ 3.687091e+01, 0.000000e+00
$$ 3.718804e+01, 0.000000e+00
$$ 3.750651e+01, 0.000000e+00
$$ 3.782631e+01, 0.000000e+00
$$ 3.814744e+01, 0.000000e+00
$$ 3.846986e+01, 0.000000e+00
$$ 3.879359e+01, 0.000000e+00
$$ 3.911859e+01, 0.000000e+00
$$ 3.944486e+01, 0.000000e+00
$$ 3.977238e+01, 0.000000e+00
$$ 4.010114e+01, 0.000000e+00
$$ 4.043112e+01, 0.000000e+00
$$ 4.076232e+01, 0.000000e+00
$$ 4.109471e+01, 0.000000e+00
$$ 4.142829e+01, 0.000000e+00
$$ 4.176303e+01, 0.000000e+00
$$ 4.209892e+01, 0.000000e+00
$$ 4.243594e+01, 0.000000e+00
$$ 4.277409e+01, 0.000000e+00
$$ 4.311333e+01, 0.000000e+00
$$ 4.345367e+01, 0.000000e+00
$$ 4.379507e+01, 0.000000e+00
$$ 4.413752e+01, 0.000000e+00
$$ 4.448102e+01, 0.000000e+00
$$ 4.482553e+01, 0.000000e+00
$$ 4.517104e+01, 0.000000e+00
$$ 4.551753e+01, 0.000000e+00
$$ 4.586499e+01, 0.000000e+00
$$ 4.621339e+01, 0.000000e+00
$$ 4.656273e+01, 0.000000e+00
$$ 4.691297e+01, 0.000000e+00
$$ 4.726410e+01, 0.000000e+00
$$ 4.761610e+01, 0.000000e+00
$$ 4.796895e+01, 0.000000e+00
$$ 4.832264e+01, 0.000000e+00
$$ 4.867713e+01, 0.000000e+00
$$ 4.903241e+01, 0.000000e+00
$$ 4.938847e+01, 0.000000e+00
$$ 4.974527e+01, 0.000000e+00
$$ 5.010280e+01, 0.000000e+00
$$ 5.046104e+01, 0.000000e+00
$$ 5.081997e+01, 0.000000e+00
$$ 5.117955e+01, 0.000000e+00
$$ 5.153978e+01, 0.000000e+00
$$ 5.190063e+01, 0.000000e+00
$$ 5.226208e+01, 0.000000e+00
$$ 5.262410e+01, 0.000000e+00
$$ 5.298667e+01, 0.000000e+00
$$ 5.334977e+01, 0.000000e+00
$$ 5.371337e+01, 0.000000e+00
$$ 5.407746e+01, 0.000000e+00
$$ 5.444201e+01, 0.000000e+00
$$ 5.480699e+01, 0.000000e+00
$$ 5.517238e+01, 0.000000e+00
$$ 5.553815e+01, 0.000000e+00
$$ 5.590429e+01, 0.000000e+00
$$ 5.627076e+01, 0.000000e+00
$$ 5.663755e+01, 0.000000e+00
$$ 5.700462e+01, 0.000000e+00
$$ 5.737195e+01, 0.000000e+00
$$ 5.773952e+01, 0.000000e+00
$$ 5.810730e+01, 0.000000e+00
$$ 5.847526e+01, 0.000000e+00
$$ 5.884338e+01, 0.000000e+00
$$ 5.921163e+01, 0.000000e+00
$$ 5.957999e+01, 0.000000e+00
$$ 5.994843e+01, 0.000000e+00
$$ 6.031691e+01, 0.000000e+00
$$ 6.068542e+01, 0.000000e+00
$$ 6.105393e+01, 0.000000e+00
$$ 6.142241e+01, 0.000000e+00
$$ 6.179083e+01, 0.000000e+00
$$ 6.215917e+01, 0.000000e+00
$$ 6.252740e+01, 0.000000e+00
$$ 6.289548e+01, 0.000000e+00
$$ 6.326340e+01, 0.000000e+00
$$ 6.363112e+01, 0.000000e+00
$$ 6.399861e+01, 0.000000e+00
$$ 6.436585e+01, 0.000000e+00
$$ 6.473281e+01, 0.000000e+00
$$ 6.509945e+01, 0.000000e+00
$$ 6.546576e+01, 0.000000e+00
$$ 6.583170e+01, 0.000000e+00
$$ 6.619724e+01, 0.000000e+00
$$ 6.656235e+01, 0.000000e+00
$$ 6.692700e+01, 0.000000e+00
$$ 6.729117e+01, 0.000000e+00
$$ 6.765482e+01, 0.000000e+00
$$ 6.801793e+01, 0.000000e+00
$$ 6.838046e+01, 0.000000e+00
$$ 6.874239e+01, 0.000000e+00
$$ 6.910368e+01, 0.000000e+00
$$ 6.946430e+01, 0.000000e+00
$$ 6.982423e+01, 0.000000e+00
$$ 7.018344e+01, 0.000000e+00
$$ 7.054188e+01, 0.000000e+00
$$ 7.089954e+01, 0.000000e+00
$$ 7.125639e+01, 0.000000e+00
$$ 7.161238e+01, 0.000000e+00
$$ 7.196750e+01, 0.000000e+00
$$ 7.232171e+01, 0.000000e+00
$$ 7.267498e+01, 0.000000e+00
$$ 7.302728e+01, 0.000000e+00
$$ 7.337857e+01, 0.000000e+00
$$ 7.372884e+01, 0.000000e+00
$$ 7.407804e+01, 0.000000e+00
$$ 7.442615e+01, 0.000000e+00
$$ 7.477314e+01, 0.000000e+00
$$ 7.511897e+01, 0.000000e+00
$$ 7.546361e+01, 0.000000e+00
$$ 7.580704e+01, 0.000000e+00
$$ 7.614922e+01, 0.000000e+00
$$ 7.649012e+01, 0.000000e+00
$$ 7.682971e+01, 0.000000e+00
$$ 7.716795e+01, 0.000000e+00
$$ 7.750483e+01, 0.000000e+00
$$ 7.784030e+01, 0.000000e+00
$$ 7.817434e+01, 0.000000e+00
$$ 7.850692e+01, 0.000000e+00
$$ 7.883800e+01, 0.000000e+00
$$ 7.916755e+01, 0.000000e+00
$$ 7.949554e+01, 0.000000e+00
$$ 7.982195e+01, 0.000000e+00
$$ 8.014674e+01, 0.000000e+00
$$ 8.046988e+01, 0.000000e+00
$$ 8.079134e+01, 0.000000e+00
$$ 8.111109e+01, 0.000000e+00
$$ 8.142910e+01, 0.000000e+00
$$ 8.174534e+01, 0.000000e+00
$$ 8.205978e+01, 0.000000e+00
$$ 8.237239e+01, 0.000000e+00
$$ 8.268313e+01, 0.000000e+00
$$ 8.299199e+01, 0.000000e+00
$$ 8.329892e+01, 0.000000e+00
$$ 8.360390e+01, 0.000000e+00
$$ 8.390690e+01, 0.000000e+00
$$ 8.420789e+01, 0.000000e+00
$$ 8.450684e+01, 0.000000e+00
$$ 8.480372e+01, 0.000000e+00
$$ 8.509850e+01, 0.000000e+00
$$ 8.539116e+01, 0.000000e+00
$$ 8.568165e+01, 0.000000e+00
$$ 8.596997e+01, 0.000000e+00
$$ 8.625607e+01, 0.000000e+00
$$ 8.653992e+01, 0.000000e+00
$$ 8.682151e+01, 0.000000e+00
$$ 8.710079e+01, 0.000000e+00
$$ 8.737775e+01, 0.000000e+00
$$ 8.765235e+01, 0.000000e+00
$$ 8.792457e+01, 0.000000e+00
$$ 8.819439e+01, 0.000000e+00
$$ 8.846176e+01, 0.000000e+00
$$ 8.872667e+01, 0.000000e+00
$$ 8.898908e+01, 0.000000e+00
$$ 8.924898e+01, 0.000000e+00
$$ 8.950633e+01, 0.000000e+00
$$ 8.976111e+01, 0.000000e+00
$$ 9.001329e+01, 0.000000e+00
$$ 9.026285e+01, 0.000000e+00
$$ 9.050976e+01, 0.000000e+00
$$ 9.075400e+01, 0.000000e+00
$$ 9.099553e+01, 0.000000e+00
$$ 9.123434e+01, 0.000000e+00
$$ 9.147040e+01, 0.000000e+00
$$ 9.170369e+01, 0.000000e+00
$$ 9.193418e+01, 0.000000e+00
$$ 9.216184e+01, 0.000000e+00
$$ 9.238666e+01, 0.000000e+00
$$ 9.260860e+01, 0.000000e+00
$$ 9.282766e+01, 0.000000e+00
$$ 9.304379e+01, 0.000000e+00
$$ 9.325699e+01, 0.000000e+00
$$ 9.346722e+01, 0.000000e+00
$$ 9.367448e+01, 0.000000e+00
$$ 9.387872e+01, 0.000000e+00
$$ 9.407994e+01, 0.000000e+00
$$ 9.427811e+01, 0.000000e+00
$$ 9.447320e+01, 0.000000e+00
$$ 9.466521e+01, 0.000000e+00
$$ 9.485411e+01, 0.000000e+00
$$ 9.503987e+01, 0.000000e+00
$$ 9.522248e+01, 0.000000e+00
$$ 9.540192e+01, 0.000000e+00
$$ 9.557818e+01, 0.000000e+00
$$ 9.575122e+01, 0.000000e+00
$$ 9.592103e+01, 0.000000e+00
$$ 9.608760e+01, 0.000000e+00
$$ 9.625091e+01, 0.000000e+00
$$ 9.641093e+01, 0.000000e+00
$$ 9.656765e+01, 0.000000e+00
$$ 9.672106e+01, 0.000000e+00
$$ 9.687114e+01, 0.000000e+00
$$ 9.701787e+01, 0.000000e+00
$$ 9.716123e+01, 0.000000e+00
$$ 9.730121e+01, 0.000000e+00
$$ 9.743780e+01, 0.000000e+00
$$ 9.757098e+01, 0.000000e+00
$$ 9.770073e+01, 0.000000e+00
$$ 9.782704e+01, 0.000000e+00
$$ 9.794990e+01, 0.000000e+00
$$ 9.806930e+01, 0.000000e+00
$$ 9.818522e+01, 0.000000e+00
$$ 9.829764e+01, 0.000000e+00
$$ 9.840656e+01, 0.000000e+00
$$ 9.851197e+01, 0.000000e+00
$$ 9.861384e+01, 0.000000e+00
$$ 9.871218e+01, 0.000000e+00
$$ 9.880697e+01, 0.000000e+00
$$ 9.889820e+01, 0.000000e+00
$$ 9.898586e+01, 0.000000e+00
$$ 9.906994e+01, 0.000000e+00
$$ 9.915043e+01, 0.000000e+00
$$ 9.922732e+01, 0.000000e+00
$$ 9.930061e+01, 0.000000e+00
$$ 9.937028e+01, 0.000000e+00
$$ 9.943633e+01, 0.000000e+00
$$ 9.949875e+01, 0.000000e+00
$$ 9.955754e+01, 0.000000e+00
$$ 9.961268e+01, 0.000000e+00
$$ 9.966418e+01, 0.000000e+00
$$ 9.971202e+01, 0.000000e+00
$$ 9.975620e+01, 0.000000e+00
$$ 9.979671e+01, 0.000000e+00
$$ 9.983356e+01, 0.000000e+00
$$ 9.986673e+01, 0.000000e+00
$$ 9.989623e+01, 0.000000e+00
$$ 9.992205e+01, 0.000000e+00
$$ 9.994418e+01, 0.000000e+00
$$ 9.996263e+01, 0.000000e+00
$$ 9.997739e+01, 0.000000e+00
$$ 9.998846e+01, 0.000000e+00
$$ 9.999585e+01, 0.000000e+00
$$ 9.999954e+01, 0.000000e+00
$$ 9.999954e+01, 0.000000e+00
$$ 9.999585e+01, 0.000000e+00
$$ 9.998846e+01, 0.000000e+00
$$ 9.997739e+01, 0.000000e+00
$$ 9.996263e+01, 0.000000e+00
$$ 9.994418e+01, 0.000000e+00
$$ 9.992205e+01, 0.000000e+00
$$ 9.989623e+01, 0.000000e+00
$$ 9.986673e+01, 0.000000e+00
$$ 9.983356e+01, 0.000000e+00
$$ 9.979671e+01, 0.000000e+00
$$ 9.975620e+01, 0.000000e+00
$$ 9.971202e+01, 0.000000e+00
$$ 9.966418e+01, 0.000000e+00
$$ 9.961268e+01, 0.000000e+00
$$ 9.955754e+01, 0.000000e+00
$$ 9.949875e+01, 0.000000e+00
$$ 9.943633e+01, 0.000000e+00
$$ 9.937028e+01, 0.000000e+00
$$ 9.930061e+01, 0.000000e+00
$$ 9.922732e+01, 0.000000e+00
$$ 9.915043e+01, 0.000000e+00
$$ 9.906994e+01, 0.000000e+00
$$ 9.898586e+01, 0.000000e+00
$$ 9.889820e+01, 0.000000e+00
$$ 9.880697e+01, 0.000000e+00
$$ 9.871218e+01, 0.000000e+00
$$ 9.861384e+01, 0.000000e+00
$$ 9.851197e+01, 0.000000e+00
$$ 9.840656e+01, 0.000000e+00
$$ 9.829764e+01, 0.000000e+00
$$ 9.818522e+01, 0.000000e+00
$$ 9.806930e+01, 0.000000e+00
$$ 9.794990e+01, 0.000000e+00
$$ 9.782704e+01, 0.000000e+00
$$ 9.770073e+01, 0.000000e+00
$$ 9.757098e+01, 0.000000e+00
$$ 9.743780e+01, 0.000000e+00
$$ 9.730121e+01, 0.000000e+00
$$ 9.716123e+01, 0.000000e+00
$$ 9.701787e+01, 0.000000e+00
$$ 9.687114e+01, 0.000000e+00
$$ 9.672106e+01, 0.000000e+00
$$ 9.656765e+01, 0.000000e+00
$$ 9.641093e+01, 0.000000e+00
$$ 9.625091e+01, 0.000000e+00
$$ 9.608760e+01, 0.000000e+00
$$ 9.592103e+01, 0.000000e+00
$$ 9.575122e+01, 0.000000e+00
$$ 9.557818e+01, 0.000000e+00
$$ 9.540192e+01, 0.000000e+00
$$ 9.522248e+01, 0.000000e+00
$$ 9.503987e+01, 0.000000e+00
$$ 9.485411e+01, 0.000000e+00
$$ 9.466521e+01, 0.000000e+00
$$ 9.447320e+01, 0.000000e+00
$$ 9.427811e+01, 0.000000e+00
$$ 9.407994e+01, 0.000000e+00
$$ 9.387872e+01, 0.000000e+00
$$ 9.367448e+01, 0.000000e+00
$$ 9.346722e+01, 0.000000e+00
$$ 9.325699e+01, 0.000000e+00
$$ 9.304379e+01, 0.000000e+00
$$ 9.282766e+01, 0.000000e+00
$$ 9.260860e+01, 0.000000e+00
$$ 9.238666e+01, 0.000000e+00
$$ 9.216184e+01, 0.000000e+00
$$ 9.193418e+01, 0.000000e+00
$$ 9.170369e+01, 0.000000e+00
$$ 9.147040e+01, 0.000000e+00
$$ 9.123434e+01, 0.000000e+00
$$ 9.099553e+01, 0.000000e+00
$$ 9.075400e+01, 0.000000e+00
$$ 9.050976e+01, 0.000000e+00
$$ 9.026285e+01, 0.000000e+00
$$ 9.001329e+01, 0.000000e+00
$$ 8.976111e+01, 0.000000e+00
$$ 8.950633e+01, 0.000000e+00
$$ 8.924898e+01, 0.000000e+00
$$ 8.898908e+01, 0.000000e+00
$$ 8.872667e+01, 0.000000e+00
$$ 8.846176e+01, 0.000000e+00
$$ 8.819439e+01, 0.000000e+00
$$ 8.792457e+01, 0.000000e+00
$$ 8.765235e+01, 0.000000e+00
$$ 8.737775e+01, 0.000000e+00
$$ 8.710079e+01, 0.000000e+00
$$ 8.682151e+01, 0.000000e+00
$$ 8.653992e+01, 0.000000e+00
$$ 8.625607e+01, 0.000000e+00
$$ 8.596997e+01, 0.000000e+00
$$ 8.568165e+01, 0.000000e+00
$$ 8.539116e+01, 0.000000e+00
$$ 8.509850e+01, 0.000000e+00
$$ 8.480372e+01, 0.000000e+00
$$ 8.450684e+01, 0.000000e+00
$$ 8.420789e+01, 0.000000e+00
$$ 8.390690e+01, 0.000000e+00
$$ 8.360390e+01, 0.000000e+00
$$ 8.329892e+01, 0.000000e+00
$$ 8.299199e+01, 0.000000e+00
$$ 8.268313e+01, 0.000000e+00
$$ 8.237239e+01, 0.000000e+00
$$ 8.205978e+01, 0.000000e+00
$$ 8.174534e+01, 0.000000e+00
$$ 8.142910e+01, 0.000000e+00
$$ 8.111109e+01, 0.000000e+00
$$ 8.079134e+01, 0.000000e+00
$$ 8.046988e+01, 0.000000e+00
$$ 8.014674e+01, 0.000000e+00
$$ 7.982195e+01, 0.000000e+00
$$ 7.949554e+01, 0.000000e+00
$$ 7.916755e+01, 0.000000e+00
$$ 7.883800e+01, 0.000000e+00
$$ 7.850692e+01, 0.000000e+00
$$ 7.817434e+01, 0.000000e+00
$$ 7.784030e+01, 0.000000e+00
$$ 7.750483e+01, 0.000000e+00
$$ 7.716795e+01, 0.000000e+00
$$ 7.682971e+01, 0.000000e+00
$$ 7.649012e+01, 0.000000e+00
$$ 7.614922e+01, 0.000000e+00
$$ 7.580704e+01, 0.000000e+00
$$ 7.546361e+01, 0.000000e+00
$$ 7.511897e+01, 0.000000e+00
$$ 7.477314e+01, 0.000000e+00
$$ 7.442615e+01, 0.000000e+00
$$ 7.407804e+01, 0.000000e+00
$$ 7.372884e+01, 0.000000e+00
$$ 7.337857e+01, 0.000000e+00
$$ 7.302728e+01, 0.000000e+00
$$ 7.267498e+01, 0.000000e+00
$$ 7.232171e+01, 0.000000e+00
$$ 7.196750e+01, 0.000000e+00
$$ 7.161238e+01, 0.000000e+00
$$ 7.125639e+01, 0.000000e+00
$$ 7.089954e+01, 0.000000e+00
$$ 7.054188e+01, 0.000000e+00
$$ 7.018344e+01, 0.000000e+00
$$ 6.982423e+01, 0.000000e+00
$$ 6.946430e+01, 0.000000e+00
$$ 6.910368e+01, 0.000000e+00
$$ 6.874239e+01, 0.000000e+00
$$ 6.838046e+01, 0.000000e+00
$$ 6.801793e+01, 0.000000e+00
$$ 6.765482e+01, 0.000000e+00
$$ 6.729117e+01, 0.000000e+00
$$ 6.692700e+01, 0.000000e+00
$$ 6.656235e+01, 0.000000e+00
$$ 6.619724e+01, 0.000000e+00
$$ 6.583170e+01, 0.000000e+00
$$ 6.546576e+01, 0.000000e+00
$$ 6.509945e+01, 0.000000e+00
$$ 6.473281e+01, 0.000000e+00
$$ 6.436585e+01, 0.000000e+00
$$ 6.399861e+01, 0.000000e+00
$$ 6.363112e+01, 0.000000e+00
$$ 6.326340e+01, 0.000000e+00
$$ 6.289548e+01, 0.000000e+00
$$ 6.252740e+01, 0.000000e+00
$$ 6.215917e+01, 0.000000e+00
$$ 6.179083e+01, 0.000000e+00
$$ 6.142241e+01, 0.000000e+00
$$ 6.105393e+01, 0.000000e+00
$$ 6.068542e+01, 0.000000e+00
$$ 6.031691e+01, 0.000000e+00
$$ 5.994843e+01, 0.000000e+00
$$ 5.957999e+01, 0.000000e+00
$$ 5.921163e+01, 0.000000e+00
$$ 5.884338e+01, 0.000000e+00
$$ 5.847526e+01, 0.000000e+00
$$ 5.810730e+01, 0.000000e+00
$$ 5.773952e+01, 0.000000e+00
$$ 5.737195e+01, 0.000000e+00
$$ 5.700462e+01, 0.000000e+00
$$ 5.663755e+01, 0.000000e+00
$$ 5.627076e+01, 0.000000e+00
$$ 5.590429e+01, 0.000000e+00
$$ 5.553815e+01, 0.000000e+00
$$ 5.517238e+01, 0.000000e+00
$$ 5.480699e+01, 0.000000e+00
$$ 5.444201e+01, 0.000000e+00
$$ 5.407746e+01, 0.000000e+00
$$ 5.371337e+01, 0.000000e+00
$$ 5.334977e+01, 0.000000e+00
$$ 5.298667e+01, 0.000000e+00
$$ 5.262410e+01, 0.000000e+00
$$ 5.226208e+01, 0.000000e+00
$$ 5.190063e+01, 0.000000e+00
$$ 5.153978e+01, 0.000000e+00
$$ 5.117955e+01, 0.000000e+00
$$ 5.081997e+01, 0.000000e+00
$$ 5.046104e+01, 0.000000e+00
$$ 5.010280e+01, 0.000000e+00
$$ 4.974527e+01, 0.000000e+00
$$ 4.938847e+01, 0.000000e+00
$$ 4.903241e+01, 0.000000e+00
$$ 4.867713e+01, 0.000000e+00
$$ 4.832264e+01, 0.000000e+00
$$ 4.796895e+01, 0.000000e+00
$$ 4.761610e+01, 0.000000e+00
$$ 4.726410e+01, 0.000000e+00
$$ 4.691297e+01, 0.000000e+00
$$ 4.656273e+01, 0.000000e+00
$$ 4.621339e+01, 0.000000e+00
$$ 4.586499e+01, 0.000000e+00
$$ 4.551753e+01, 0.000000e+00
$$ 4.517104e+01, 0.000000e+00
$$ 4.482553e+01, 0.000000e+00
$$ 4.448102e+01, 0.000000e+00
$$ 4.413752e+01, 0.000000e+00
$$ 4.379507e+01, 0.000000e+00
$$ 4.345367e+01, 0.000000e+00
$$ 4.311333e+01, 0.000000e+00
$$ 4.277409e+01, 0.000000e+00
$$ 4.243594e+01, 0.000000e+00
$$ 4.209892e+01, 0.000000e+00
$$ 4.176303e+01, 0.000000e+00
$$ 4.142829e+01, 0.000000e+00
$$ 4.109471e+01, 0.000000e+00
$$ 4.076232e+01, 0.000000e+00
$$ 4.043112e+01, 0.000000e+00
$$ 4.010114e+01, 0.000000e+00
$$ 3.977238e+01, 0.000000e+00
$$ 3.944486e+01, 0.000000e+00
$$ 3.911859e+01, 0.000000e+00
$$ 3.879359e+01, 0.000000e+00
$$ 3.846986e+01, 0.000000e+00
$$ 3.814744e+01, 0.000000e+00
$$ 3.782631e+01, 0.000000e+00
$$ 3.750651e+01, 0.000000e+00
$$ 3.718804e+01, 0.000000e+00
$$ 3.687091e+01, 0.000000e+00
$$ 3.655513e+01, 0.000000e+00
$$ 3.624072e+01, 0.000000e+00
$$ 3.592769e+01, 0.000000e+00
$$ 3.561605e+01, 0.000000e+00
$$ 3.530581e+01, 0.000000e+00
$$ 3.499698e+01, 0.000000e+00
$$ 3.468957e+01, 0.000000e+00
$$ 3.438359e+01, 0.000000e+00
$$ 3.407905e+01, 0.000000e+00
$$ 3.377596e+01, 0.000000e+00
$$ 3.347433e+01, 0.000000e+00
$$ 3.317417e+01, 0.000000e+00
$$ 3.287549e+01, 0.000000e+00
$$ 3.257829e+01, 0.000000e+00
$$ 3.228259e+01, 0.000000e+00
$$ 3.198840e+01, 0.000000e+00
$$ 3.169571e+01, 0.000000e+00
$$ 3.140454e+01, 0.000000e+00
$$ 3.111490e+01, 0.000000e+00
$$ 3.082679e+01, 0.000000e+00
$$ 3.054023e+01, 0.000000e+00
$$ 3.025521e+01, 0.000000e+00
$$ 2.997174e+01, 0.000000e+00
$$ 2.968983e+01, 0.000000e+00
$$ 2.940949e+01, 0.000000e+00
$$ 2.913072e+01, 0.000000e+00
$$ 2.885353e+01, 0.000000e+00
$$ 2.857792e+01, 0.000000e+00
$$ 2.830390e+01, 0.000000e+00
$$ 2.803147e+01, 0.000000e+00
$$ 2.776064e+01, 0.000000e+00
$$ 2.749141e+01, 0.000000e+00
$$ 2.722378e+01, 0.000000e+00
$$ 2.695777e+01, 0.000000e+00
$$ 2.669337e+01, 0.000000e+00
$$ 2.643059e+01, 0.000000e+00
$$ 2.616942e+01, 0.000000e+00
$$ 2.590989e+01, 0.000000e+00
$$ 2.565198e+01, 0.000000e+00
$$ 2.539570e+01, 0.000000e+00
$$ 2.514105e+01, 0.000000e+00
$$ 2.488803e+01, 0.000000e+00
$$ 2.463666e+01, 0.000000e+00
$$ 2.438692e+01, 0.000000e+00
$$ 2.413882e+01, 0.000000e+00
$$ 2.389236e+01, 0.000000e+00
$$ 2.364755e+01, 0.000000e+00
$$ 2.340438e+01, 0.000000e+00
$$ 2.316286e+01, 0.000000e+00
$$ 2.292299e+01, 0.000000e+00
$$ 2.268476e+01, 0.000000e+00
$$ 2.244817e+01, 0.000000e+00
$$ 2.221324e+01, 0.000000e+00
$$ 2.197995e+01, 0.000000e+00
$$ 2.174831e+01, 0.000000e+00
$$ 2.151832e+01, 0.000000e+00
$$ 2.128997e+01, 0.000000e+00
$$ 2.106327e+01, 0.000000e+00
$$ 2.083821e+01, 0.000000e+00
$$ 2.061480e+01, 0.000000e+00
$$ 2.039303e+01, 0.000000e+00
$$ 2.017290e+01, 0.000000e+00
$$ 1.995440e+01, 0.000000e+00
$$ 1.973755e+01, 0.000000e+00
$$ 1.952234e+01, 0.000000e+00
$$ 1.930875e+01, 0.000000e+00
$$ 1.909680e+01, 0.000000e+00
$$ 1.888648e+01, 0.000000e+00
$$ 1.867779e+01, 0.000000e+00
$$ 1.847071e+01, 0.000000e+00
$$ 1.826527e+01, 0.000000e+00
$$ 1.806143e+01, 0.000000e+00
$$ 1.785922e+01, 0.000000e+00
$$ 1.765862e+01, 0.000000e+00
$$ 1.745962e+01, 0.000000e+00
$$ 1.726223e+01, 0.000000e+00
$$ 1.706644e+01, 0.000000e+00
$$ 1.687225e+01, 0.000000e+00
$$ 1.667966e+01, 0.000000e+00
$$ 1.648865e+01, 0.000000e+00
$$ 1.629923e+01, 0.000000e+00
$$ 1.611139e+01, 0.000000e+00
$$ 1.592513e+01, 0.000000e+00
$$ 1.574044e+01, 0.000000e+00
$$ 1.555732e+01, 0.000000e+00
$$ 1.537576e+01, 0.000000e+00
$$ 1.519575e+01, 0.000000e+00
$$ 1.501731e+01, 0.000000e+00
$$ 1.484040e+01, 0.000000e+00
$$ 1.466505e+01, 0.000000e+00
$$ 1.449122e+01, 0.000000e+00
$$ 1.431893e+01, 0.000000e+00
$$ 1.414817e+01, 0.000000e+00
$$ 1.397893e+01, 0.000000e+00
$$ 1.381120e+01, 0.000000e+00
$$ 1.364498e+01, 0.000000e+00
$$ 1.348026e+01, 0.000000e+00
$$ 1.331704e+01, 0.000000e+00
$$ 1.315531e+01, 0.000000e+00
$$ 1.299506e+01, 0.000000e+00
$$ 1.283630e+01, 0.000000e+00
$$ 1.267900e+01, 0.000000e+00
$$ 1.252317e+01, 0.000000e+00
$$ 1.236880e+01, 0.000000e+00
$$ 1.221588e+01, 0.000000e+00
$$ 1.206441e+01, 0.000000e+00
$$ 1.191437e+01, 0.000000e+00
$$ 1.176576e+01, 0.000000e+00
$$ 1.161859e+01, 0.000000e+00
$$ 1.147282e+01, 0.000000e+00
$$ 1.132847e+01, 0.000000e+00
$$ 1.118552e+01, 0.000000e+00
$$ 1.104397e+01, 0.000000e+00
$$ 1.090381e+01, 0.000000e+00
$$ 1.076502e+01, 0.000000e+00
$$ 1.062762e+01, 0.000000e+00
$$ 1.049157e+01, 0.000000e+00
$$ 1.035689e+01, 0.000000e+00
$$ 1.022356e+01, 0.000000e+00
$$ 1.009157e+01, 0.000000e+00
$$ 9.960923e+00, 0.000000e+00
$$ 9.831601e+00, 0.000000e+00
$$ 9.703600e+00, 0.000000e+00
$$ 9.576911e+00, 0.000000e+00
$$ 9.451528e+00, 0.000000e+00
$$ 9.327442e+00, 0.000000e+00
$$ 9.204645e+00, 0.000000e+00
$$ 9.083130e+00, 0.000000e+00
$$ 8.962887e+00, 0.000000e+00
$$ 8.843911e+00, 0.000000e+00
$$ 8.726191e+00, 0.000000e+00
$$ 8.609720e+00, 0.000000e+00
$$ 8.494491e+00, 0.000000e+00
$$ 8.380494e+00, 0.000000e+00
$$ 8.267722e+00, 0.000000e+00
$$ 8.156166e+00, 0.000000e+00
$$ 8.045819e+00, 0.000000e+00
$$ 7.936671e+00, 0.000000e+00
$$ 7.828715e+00, 0.000000e+00
$$ 7.721943e+00, 0.000000e+00
$$ 7.616345e+00, 0.000000e+00
$$ 7.511914e+00, 0.000000e+00
$$ 7.408642e+00, 0.000000e+00
$$ 7.306520e+00, 0.000000e+00
$$ 7.205539e+00, 0.000000e+00
$$ 7.105692e+00, 0.000000e+00
$$ 7.006969e+00, 0.000000e+00
$$ 6.909363e+00, 0.000000e+00
$$ 6.812866e+00, 0.000000e+00
$$ 6.717468e+00, 0.000000e+00
$$ 6.623161e+00, 0.000000e+00
$$ 6.529937e+00, 0.000000e+00
$$ 6.437788e+00, 0.000000e+00
$$ 6.346705e+00, 0.000000e+00
$$ 6.256679e+00, 0.000000e+00
$$ 6.167703e+00, 0.000000e+00
$$ 6.079768e+00, 0.000000e+00
$$ 5.992865e+00, 0.000000e+00
$$ 5.906986e+00, 0.000000e+00
$$ 5.822123e+00, 0.000000e+00
$$ 5.738268e+00, 0.000000e+00
$$ 5.655411e+00, 0.000000e+00
$$ 5.573545e+00, 0.000000e+00
$$ 5.492661e+00, 0.000000e+00
$$ 5.412752e+00, 0.000000e+00
$$ 5.333808e+00, 0.000000e+00
$$ 5.255821e+00, 0.000000e+00
$$ 5.178783e+00, 0.000000e+00
$$ 5.102687e+00, 0.000000e+00
$$ 5.027522e+00, 0.000000e+00
$$ 4.953282e+00, 0.000000e+00
$$ 4.879959e+00, 0.000000e+00
$$ 4.807543e+00, 0.000000e+00
$$ 4.736027e+00, 0.000000e+00
$$ 4.665402e+00, 0.000000e+00
$$ 4.595662e+00, 0.000000e+00
$$ 4.526796e+00, 0.000000e+00
$$ 4.458798e+00, 0.000000e+00
$$ 4.391659e+00, 0.000000e+00
$$ 4.325371e+00, 0.000000e+00
$$ 4.259927e+00, 0.000000e+00
$$ 4.195318e+00, 0.000000e+00
$$ 4.131537e+00, 0.000000e+00
$$ 4.068575e+00, 0.000000e+00
$$ 4.006424e+00, 0.000000e+00
$$ 3.945077e+00, 0.000000e+00
$$ 3.884526e+00, 0.000000e+00
$$ 3.824764e+00, 0.000000e+00
$$ 3.765782e+00, 0.000000e+00
$$ 3.707572e+00, 0.000000e+00
$$ 3.650128e+00, 0.000000e+00
$$ 3.593441e+00, 0.000000e+00
$$ 3.537503e+00, 0.000000e+00
$$ 3.482308e+00, 0.000000e+00
$$ 3.427848e+00, 0.000000e+00
$$ 3.374114e+00, 0.000000e+00
$$ 3.321101e+00, 0.000000e+00
$$ 3.268799e+00, 0.000000e+00
$$ 3.217203e+00, 0.000000e+00
$$ 3.166304e+00, 0.000000e+00
$$ 3.116095e+00, 0.000000e+00
$$ 3.066570e+00, 0.000000e+00
$$ 3.017720e+00, 0.000000e+00
$$ 2.969538e+00, 0.000000e+00
$$ 2.922018e+00, 0.000000e+00
$$ 2.875152e+00, 0.000000e+00
$$ 2.828934e+00, 0.000000e+00
$$ 2.783356e+00, 0.000000e+00
$$ 2.738411e+00, 0.000000e+00
$$ 2.694092e+00, 0.000000e+00
$$ 2.650393e+00, 0.000000e+00
$$ 2.607306e+00, 0.000000e+00
$$ 2.564825e+00, 0.000000e+00
$$ 2.522943e+00, 0.000000e+00
$$ 2.481653e+00, 0.000000e+00
$$ 2.440949e+00, 0.000000e+00
$$ 2.400824e+00, 0.000000e+00
$$ 2.361271e+00, 0.000000e+00
$$ 2.322285e+00, 0.000000e+00
$$ 2.283857e+00, 0.000000e+00
$$ 2.245983e+00, 0.000000e+00
$$ 2.208655e+00, 0.000000e+00
$$ 2.171868e+00, 0.000000e+00
$$ 2.135614e+00, 0.000000e+00
$$ 2.099888e+00, 0.000000e+00
$$ 2.064683e+00, 0.000000e+00
$$ 2.029994e+00, 0.000000e+00
$$ 1.995813e+00, 0.000000e+00
$$ 1.962136e+00, 0.000000e+00
$$ 1.928956e+00, 0.000000e+00
$$ 1.896267e+00, 0.000000e+00
$$ 1.864063e+00, 0.000000e+00
$$ 1.832339e+00, 0.000000e+00
$$ 1.801088e+00, 0.000000e+00
$$ 1.770304e+00, 0.000000e+00
$$ 1.739982e+00, 0.000000e+00
$$ 1.710117e+00, 0.000000e+00
$$ 1.680702e+00, 0.000000e+00
$$ 1.651732e+00, 0.000000e+00
$$ 1.623202e+00, 0.000000e+00
$$ 1.595105e+00, 0.000000e+00
$$ 1.567437e+00, 0.000000e+00
$$ 1.540192e+00, 0.000000e+00
$$ 1.513365e+00, 0.000000e+00
$$ 1.486950e+00, 0.000000e+00
$$ 1.460942e+00, 0.000000e+00
$$ 1.435337e+00, 0.000000e+00
$$ 1.410127e+00, 0.000000e+00
$$ 1.385310e+00, 0.000000e+00
$$ 1.360879e+00, 0.000000e+00
$$ 1.336830e+00, 0.000000e+00
$$ 1.313157e+00, 0.000000e+00
$$ 1.289855e+00, 0.000000e+00
$$ 1.266921e+00, 0.000000e+00
$$ 1.244348e+00, 0.000000e+00
$$ 1.222132e+00, 0.000000e+00
$$ 1.200269e+00, 0.000000e+00
$$ 1.178753e+00, 0.000000e+00
$$ 1.157580e+00, 0.000000e+00
$$ 1.136746e+00, 0.000000e+00
$$ 1.116245e+00, 0.000000e+00
$$ 1.096073e+00, 0.000000e+00
$$ 1.076227e+00, 0.000000e+00
$$ 1.056700e+00, 0.000000e+00
$$ 1.037490e+00, 0.000000e+00
$$ 1.018591e+00, 0.000000e+00
$$ 1.000000e+00, 0.000000e+00
$$ ##END= 
##$RELAX= 
##$BRUKER FILE EXP=pulseprogram
$$ # 1 "/opt/topspin/exp/stan/nmr/lists/pp/cosygpqf"
$$ ;cosygpqf
$$ ;avance-version (07/04/05)
$$ ;2D homonuclear shift correlation
$$ ;using gradient pulses for selection
$$ ;
$$ ;$CLASS=HighRes
$$ ;$DIM=2D
$$ ;$TYPE=
$$ ;$SUBTYPE=
$$ ;$COMMENT=
$$ 
$$ 
$$ # 1 "/opt/topspin/exp/stan/nmr/lists/pp/Avance.incl" 1
$$ ;Avance3.incl
$$ ;   for AV III
$$ ;
$$ ;avance-version (07/12/14)
$$ ;
$$ ;$CLASS=HighRes Incl
$$ ;$COMMENT=
$$ 
$$ 
$$ 
$$ 
$$ 
$$ 
$$ 
$$ 
$$ 
$$ 
$$ 
$$ 
$$ 
$$ 
$$ 
$$ 
$$ 
$$ 
$$ 
$$ 
$$ 
$$ 
$$ 
$$ 
$$ 
$$ 
$$ 
$$ 
$$ 
$$ 
$$ 
$$ 
$$ 
$$ 
$$ 
$$ 
$$ 
$$ 
$$ 
$$ 
$$ 
$$ 
$$ 
$$ 
$$ 
$$ 
$$ 
$$ 
$$ 
$$ 
$$ 
$$ 
$$ 
$$ 
$$ 
$$ 
$$ 
$$ 
$$ 
$$ 
$$ 
$$ 
$$ 
$$ 
$$ 
$$ 
$$ 
$$ 
$$ 
$$ 
$$ 
$$ 
$$ 
$$ 
$$ 
$$ 
$$ 
$$ 
$$ 
$$ 
$$ 
$$ 
$$ 
$$ 
$$ 
$$ 
$$ 
$$ 
$$ 
$$ 
$$ 
$$ 
$$ 
$$ 
$$ 
$$ 
$$ 
$$ 
$$ 
$$ 
$$ 
$$ 
$$ 
$$ 
$$ 
$$ 
$$ 
$$ 
$$ 
$$ 
$$ 
$$ 
$$ 
$$ 
$$ 
$$ 
$$ 
$$ 
$$ 
$$ 
$$ 
$$ 
$$ 
$$ 
$$ 
$$ 
$$ 
$$ 
$$ 
$$ 
$$ 
$$ 
$$ 
$$ 
$$ 
$$ 
$$ 
$$ 
$$ 
$$ 
$$ 
$$ 
$$ 
$$ 
$$ 
$$ 
$$ 
$$ 
$$ 
$$ 
$$ 
$$ 
$$ 
$$ 
$$ 
$$ 
$$ 
$$ ;$Id: Avance3.incl,v 1.6.2.2 2007/12/14 16:06:46 ber Exp $
$$ # 13 "/opt/topspin/exp/stan/nmr/lists/pp/cosygpqf" 2
$$ 
$$ # 1 "/opt/topspin/exp/stan/nmr/lists/pp/Grad.incl" 1
$$ ;Grad2.incl  -  include file for Gradient Spectroscopy
$$ ;   for 1
$$ ;
$$ ;avance-version (07/01/17)
$$ ;
$$ ;$CLASS=HighRes Incl
$$ ;$COMMENT=
$$ 
$$ 
$$ 
$$ 
$$ 
$$ 
$$ 
$$ 
$$ 
$$ 
$$ 
$$ 
$$ 
$$ 
$$ 
$$ 
$$ 
$$ 
$$ 
$$ define list<gradient> EA=<EA>
$$ 
$$ 
$$ 
$$ ;$Id: Grad2.incl,v 1.12 2007/01/22 14:22:35 ber Exp $
$$ # 14 "/opt/topspin/exp/stan/nmr/lists/pp/cosygpqf" 2
$$ 
$$ 
$$ 
$$ "d13=4u"
$$ 
$$ 
$$ "in0=inf1"
$$ 
$$ "d0=3u"
$$ 
$$ 
$$ # 1 "mc_line 25 file /opt/topspin/exp/stan/nmr/lists/pp/cosygpqf expanding definition part of mc command before ze"
$$ define delay MCWRK
$$ define delay MCREST
$$ "MCWRK = 0.500000*d1"
$$ "MCREST = d1 - d1"
$$     dccorr
$$ # 25 "/opt/topspin/exp/stan/nmr/lists/pp/cosygpqf"
$$ 1 ze
$$ # 1 "mc_line 25 file /opt/topspin/exp/stan/nmr/lists/pp/cosygpqf expanding definition of mc command after ze"
$$ # 26 "/opt/topspin/exp/stan/nmr/lists/pp/cosygpqf"
$$ # 1 "mc_line 26 file /opt/topspin/exp/stan/nmr/lists/pp/cosygpqf expanding start label for mc command"
$$ 2 MCWRK 
$$ LBLF1, MCWRK
$$   MCREST
$$ # 27 "/opt/topspin/exp/stan/nmr/lists/pp/cosygpqf"
$$ 3 p1 ph1
$$   d0
$$   50u setnmr3|0 setnmr0|34|32|33 ctrlgrad 0
$$   p16:gp1
$$   d16
$$   p0 ph2
$$   d13
$$   p16:gp1
$$   d16
$$   4u setnmr3^0 setnmr0^34^32^33 ctrlgrad 7
$$   go=2 ph31
$$ # 1 "mc_line 38 file /opt/topspin/exp/stan/nmr/lists/pp/cosygpqf expanding mc command in line"
$$   MCWRK  wr #0 if #0 zd id0 
$$   lo to LBLF1 times td1
$$   MCWRK
$$ # 39 "/opt/topspin/exp/stan/nmr/lists/pp/cosygpqf"
$$ exit
$$ 
$$ 
$$ ph1=0 2
$$ ph2=0 0 2 2
$$ ph31=0 2
$$ 
$$ 
$$ ;pl1 : f1 channel - power level for pulse (default)
$$ ;p0 : f1 channel -  20 to 90 degree high power pulse
$$ ;p1 : f1 channel -  90 degree high power pulse
$$ ;p16: homospoil/gradient pulse
$$ ;d0 : incremented delay (2D)                         [3 usec]
$$ ;d1 : relaxation delay; 1-5 * T1
$$ ;d13: short delay                                    [4 usec]
$$ ;d16: delay for homospoil/gradient recovery
$$ ;inf1: 1/SW = 2 * DW
$$ ;in0: 1/(1 * SW) = 2 * DW
$$ ;nd0: 1
$$ ;NS: 1 * n
$$ ;DS: 16
$$ ;td1: number of experiments
$$ ;FnMODE: QF
$$ 
$$ ;use gradient ratio:	gp 1
$$ ;			  10
$$ 
$$ ;for z-only gradients:
$$ ;gpz1: 10%
$$ 
$$ ;use gradient files:   
$$ ;gpnam1: SINE.100
$$ 
$$ 
$$ 
$$ ;$Id: cosygpqf,v 1.5 2007/04/11 13:34:29 ber Exp $
##$RELAX= 
##$BRUKER FILE EXP=shimvalues
$$ # Fri Dec  2 15:10:13 2016
$$ #$$PROBEID=34
$$ #$$PROBEINFO=5 mm BBO BB-1H/D Z-GRD Z8478/0071
$$ #$$PICSINFO=Z8478_0071_34.par
$$ #
$$ # Active Shim Gradients
$$ #
$$ Z           		-11534          
$$ Z2          		-1072           
$$ Z3          		6916            
$$ Z4          		-2944           
$$ Z5          		1935            
$$ Z6          		-843            
$$ X           		1219            
$$ XZ          		578             
$$ XZ2         		9238            
$$ XZ3         		633             
$$ XZ4         		1136            
$$ XZ5         		-6350           
$$ Y           		1280            
$$ YZ          		663             
$$ YZ2         		190             
$$ YZ3         		-1621           
$$ YZ4         		-25             
$$ YZ5         		-1120           
$$ XY          		296             
$$ XYZ         		7419            
$$ XYZ2        		2530            
$$ XYZ3        		-1745           
$$ XYZ4        		3130            
$$ XYZ5        		6388            
$$ (X2-Y2)     		-228            
$$ (X2-Y2)Z    		5640            
$$ (X2-Y2)Z2   		-1165           
$$ (X2-Y2)Z3   		4238            
$$ (X2-Y2)Z4   		4996            
$$ (X2-Y2)Z5   		1510            
$$ X3          		795             
$$ X3Z         		2675            
$$ Y3          		235             
$$ Y3Z         		5139            
$$ #
$$ # Lock Parameter
$$ #
$$ LOCKPHASE		95.000  
$$ LOCKPOWER		-30.000 
$$ LOCKGAIN		104.147 
$$ LOCKDC		-75.000 
$$ LOCKSHIFT		2.490   
$$ FIELD		5606.812
$$ LOOPGAIN		5.000   
$$ LOOPTIME		0.250   
$$ LOOPFILTER		200.000 
$$ #
$$ IEEE64_VERSION_CODE 1
$$ #
$$ # Shim currents 
$$ #
$$ SHIM_SETTING [1 ]  -5594.05389136  
$$ SHIM_SETTING [2 ]  -1072.12135855  
$$ SHIM_SETTING [3 ]  6916.36641451   
$$ SHIM_SETTING [4 ]  0.00000000      
$$ SHIM_SETTING [5 ]  -2944.46431505  
$$ SHIM_SETTING [6 ]  1934.88231310   
$$ SHIM_SETTING [7 ]  -843.00000000   
$$ SHIM_SETTING [8 ]  0.00000000      
$$ SHIM_SETTING [9 ]  0.00000000      
$$ SHIM_SETTING [10]  -1880.00000000  
$$ SHIM_SETTING [11]  3470.00000000   
$$ SHIM_SETTING [12]  -4904.00000000  
$$ SHIM_SETTING [13]  5374.00000000   
$$ SHIM_SETTING [14]  0.00000000      
$$ SHIM_SETTING [15]  9975.96044685   
$$ SHIM_SETTING [16]  12083.37020487  
$$ SHIM_SETTING [17]  -7657.15512848  
$$ SHIM_SETTING [18]  -4107.95234555  
$$ SHIM_SETTING [19]  -7156.58111301  
$$ SHIM_SETTING [20]  4443.92556161   
$$ SHIM_SETTING [21]  10221.98930466  
$$ SHIM_SETTING [22]  -8209.01595853  
$$ SHIM_SETTING [23]  -2569.32694094  
$$ SHIM_SETTING [24]  -6172.42909478  
$$ SHIM_SETTING [25]  10819.27443599  
$$ SHIM_SETTING [26]  -3197.59177302  
$$ SHIM_SETTING [27]  0.00000000      
$$ SHIM_SETTING [28]  139.29739577    
$$ SHIM_SETTING [29]  8011.71976637   
$$ SHIM_SETTING [30]  -4590.29123364  
$$ SHIM_SETTING [31]  2870.68983379   
$$ SHIM_SETTING [32]  2522.17929829   
$$ SHIM_SETTING [33]  12187.00862412  
$$ SHIM_SETTING [34]  -3838.32437588  
$$ SHIM_SETTING [35]  3784.90534612   
$$ SHIM_SETTING [36]  -13158.31665388 
$$ SHIM_SETTING [37]  2676.96534695   
$$ SHIM_SETTING [38]  -1619.37607715  
$$ SHIM_SETTING [39]  -506.07728411   
$$ SHIM_SETTING [40]  0.00000000      
##$RELAX= 
##$BRUKER FILE EXP=uxnmr.par
$$ ##TITLE= Parameter file, TOPSPIN		Version 2.1
$$ ##JCAMPDX= 5.0
$$ ##DATATYPE= Parameter Values
$$ ##NPOINTS= 531	$$ modification sequence number
$$ ##ORIGIN= Bruker BioSpin GmbH
$$ ##OWNER= nmrsu
$$ $$ 2016-10-18 12:46:49.163 +0200  NMR_mess@av600.nmr.uni-koeln.de
$$ $$ /opt/topspin/conf/instr/spect/uxnmr.par
$$ $$ process /opt/topspin/prog/mod/confamp
$$ ##$ACB= 0
$$ ##$ACBTAT= (0..15)
0 88 72 88 50 0 0 0 0 0 0 0 0 0 0 0
$$ ##$ACBTBA= (0..15)
0 0 0 0 0 0 0 0 0 0 0 0 0 0 0 0
$$ ##$ACBTBLK= (0..15)
0 1 1 1 0 0 0 0 0 0 0 0 0 0 0 0
$$ ##$ACBTCTL= (0..15)
0 6 6 6 6 0 0 0 0 0 0 0 0 0 0 0
$$ ##$ACBTDI= (0..15)
0 -1779670023 -1779670024 -1779670024 -1779670024 0 0 0 0 0 0 0 0 0 0 0
$$ ##$ACBTDM= (0..15)
0 10 25 10 10 0 0 0 0 0 0 0 0 0 0 0
$$ ##$ACBTFHI= (0..15)
0 365 600 365 92 0 0 0 0 0 0 0 0 0 0 0
$$ ##$ACBTFL= (0..15)
0 248 248 248 88 0 0 0 0 0 0 0 0 0 0 0
$$ ##$ACBTFLO= (0..15)
0 6 180 6 30 0 0 0 0 0 0 0 0 0 0 0
$$ ##$ACBTINP= (0..15)
0 3 2 1 9 0 0 0 0 0 0 0 0 0 0 0
$$ ##$ACBTOUT= (0..15)
0 1 1 2 3 0 0 0 0 0 0 0 0 0 0 0
$$ ##$ACBTPO= (0..15)
0 300000 100000 300000 150000 0 0 0 0 0 0 0 0 0 0 0
$$ ##$ACBTPW= (0..15)
0 100 100 100 5 0 0 0 0 0 0 0 0 0 0 0
$$ ##$ACBTSB= (0..15)
0 0 0 0 0 0 0 0 0 0 0 0 0 0 0 0
$$ ##$ACBTY= <no>
$$ ##$AQSBDCH= (0..95)
0 0 0 0 0 0 0 0 255 255 255 255 255 255 255 255 255 255 255 255 255 255
255 255 255 255 255 255 255 255 255 255 255 255 255 255 255 255 255 255
255 255 255 255 255 255 255 255 255 255 255 255 255 255 255 255 255 255
255 255 255 255 255 255 255 255 255 255 255 255 255 255 255 255 255 255
255 255 255 255 255 255 255 255 255 255 255 255 255 255 255 255 255 255
255 255
$$ ##$AQSBDHW= (0..95)
3 1 8 8 8 0 0 0 255 255 255 255 255 255 255 255 255 255 255 255 255 255
255 255 255 255 255 255 255 255 255 255 255 255 255 255 255 255 255 255
255 255 255 255 255 255 255 255 255 255 255 255 255 255 255 255 255 255
255 255 255 255 255 255 255 255 255 255 255 255 255 255 255 255 255 255
255 255 255 255 255 255 255 255 255 255 255 255 255 255 255 255 255 255
255 255
$$ ##$AQSBDID= (0..95)
82 88 83 83 83 80 66 66 255 255 255 255 255 255 255 255 255 255 255 255
255 255 255 255 255 255 255 255 255 255 255 255 255 255 255 255 255 255
255 255 255 255 255 255 255 255 255 255 255 255 255 255 255 255 255 255
255 255 255 255 255 255 255 255 255 255 255 255 255 255 255 255 255 255
255 255 255 255 255 255 255 255 255 255 255 255 255 255 255 255 255 255
255 255 255 255
$$ ##$AQSBDNO= (0..95)
1 1 1 2 3 1 1 1 255 255 255 255 255 255 255 255 255 255 255 255 255 255
255 255 255 255 255 255 255 255 255 255 255 255 255 255 255 255 255 255
255 255 255 255 255 255 255 255 255 255 255 255 255 255 255 255 255 255
255 255 255 255 255 255 255 255 255 255 255 255 255 255 255 255 255 255
255 255 255 255 255 255 255 255 255 255 255 255 255 255 255 255 255 255
255 255
$$ ##$AQSBDSL= (0..95)
2 3 4 5 6 21 23 25 255 255 255 255 255 255 255 255 255 255 255 255 255
255 255 255 255 255 255 255 255 255 255 255 255 255 255 255 255 255 255
255 255 255 255 255 255 255 255 255 255 255 255 255 255 255 255 255 255
255 255 255 255 255 255 255 255 255 255 255 255 255 255 255 255 255 255
255 255 255 255 255 255 255 255 255 255 255 255 255 255 255 255 255 255
255 255 255
$$ ##$AQSBDTY= (0..95)
66 192 25 25 25 207 198 7 255 255 255 255 255 255 255 255 255 255 255 255
255 255 255 255 255 255 255 255 255 255 255 255 255 255 255 255 255 255
255 255 255 255 255 255 255 255 255 255 255 255 255 255 255 255 255 255
255 255 255 255 255 255 255 255 255 255 255 255 255 255 255 255 255 255
255 255 255 255 255 255 255 255 255 255 255 255 255 255 255 255 255 255
255 255 255 255
$$ ##$AQSBUAD= (0..95)
16 52 36 37 38 33 32 32 255 255 255 255 255 255 255 255 255 255 255 255
255 255 255 255 255 255 255 255 255 255 255 255 255 255 255 255 255 255
255 255 255 255 255 255 255 255 255 255 255 255 255 255 255 255 255 255
255 255 255 255 255 255 255 255 255 255 255 255 255 255 255 255 255 255
255 255 255 255 255 255 255 255 255 255 255 255 255 255 255 255 255 255
255 255 255 255
$$ ##$AQSECL= (0..95)
3 1 2 2 2 0 1 255 255 255 255 255 255 255 255 255 255 255 255 255 255 255
255 255 255 255 255 255 255 255 255 255 255 255 255 255 255 255 255 255
255 255 255 255 255 255 255 255 255 255 255 255 255 255 255 255 255 255
255 255 255 255 255 255 255 255 255 255 255 255 255 255 255 255 255 255
255 255 255 255 255 255 255 255 255 255 255 255 255 255 255 255 255 255
255 255
$$ ##$AQSECLS= (0..95)
0 0 0 0 0 0 2 255 255 255 255 255 255 255 255 255 255 255 255 255 255 255
255 255 255 255 255 255 255 255 255 255 255 255 255 255 255 255 255 255
255 255 255 255 255 255 255 255 255 255 255 255 255 255 255 255 255 255
255 255 255 255 255 255 255 255 255 255 255 255 255 255 255 255 255 255
255 255 255 255 255 255 255 255 255 255 255 255 255 255 255 255 255 255
255 255
$$ ##$AQSSPLT= no
$$ ##$ATT19F= (0..1)
0 0
$$ ##$ATT1H= (0..1)
0 0
$$ ##$ATT3H= (0..1)
0 0
$$ ##$ATTX= (0..1)
0 0
$$ ##$ATTY= (0..1)
0 0
$$ ##$ATTZ= (0..1)
0 0
$$ ##$BACSAIR= yes
$$ ##$BACSCAP= 0
$$ ##$BACSDEL= 10
$$ ##$BACSFCM= no
$$ ##$BACSOPT= <>
$$ ##$BACSTY= <no>
$$ ##$BARPTY= <no>
$$ ##$BFREQ= 600.2
$$ ##$BGAETH1= <no>
$$ ##$BGAETH2= <no>
$$ ##$BGAETH3= <no>
$$ ##$BGAETH4= <no>
$$ ##$BGAETH5= <no>
$$ ##$BGAETH6= <no>
$$ ##$BGAETH7= <no>
$$ ##$BGAETH8= <no>
$$ ##$BIRDS= yes
$$ ##$BMPC= 0
$$ ##$BMPCTY= <no>
$$ ##$BPSUTY= <no>
$$ ##$BSMS= 2
$$ ##$BSMSETH= <149.236.99.20>
$$ ##$BSMSTY= <no>
$$ ##$CFASMOD= (0..7)
1 1 1 1 1 1 1 1
$$ ##$CFASMUL= (0..7)
1 1 1 1 1 1 1 1
$$ ##$CNFTXDR= (0..7)
6 6 6 0 0 0 0 0
$$ ##$COMDIG2= 0
$$ ##$CPDBTY= <no>
$$ ##$CRCOTY= <no>
$$ ##$CSW1= (0..31)
3 0 0 2 2 2 9 0 0 0 0 0 0 0 0 0 0 0 0 0 0 0 0 0 0 0 0 0 0 0 0 0
$$ ##$CSW2= (0..31)
0 0 0 1 1 1 0 0 0 0 0 0 0 0 0 0 0 0 0 0 0 0 0 0 0 0 0 0 0 0 0 0
$$ ##$CSWNUM= (0..7)
3 4 0 0 0 0 0 0
$$ ##$DATSTAT= no
$$ ##$DIGI140= (0..7)
0 0 0 0 0 0 0 0
$$ ##$DIGIB12= (0..7)
0 0 0 0 0 0 0 0
$$ ##$DIGIB16= (0..7)
0 0 0 0 0 0 0 0
$$ ##$DIGIFA= (0..7)
0 0 0 0 0 0 0 0
$$ ##$DIGIHA= (0..7)
0 0 0 0 0 0 0 0
$$ ##$DIGIHAF= (0..7)
0 0 0 0 0 0 0 0
$$ ##$DIGIHRD= (0..7)
0 0 0 0 0 0 0 0
$$ ##$DIGIIA= (0..7)
0 0 0 0 0 0 0 0
$$ ##$DIGIO16= (0..7)
0 0 0 0 0 0 0 0
$$ ##$DIGISA= (0..7)
0 0 0 0 0 0 0 0
$$ ##$DIGISAF= (0..7)
0 0 0 0 0 0 0 0
$$ ##$DIGISL= (0..7)
0 0 0 0 0 0 0 0
$$ ##$DIGITYI= (0..7)
0 0 0 0 0 0 0 0
$$ ##$DIGITYP= (0..7)
0 0 0 0 0 0 0 0
$$ ##$DIGITZ= 0
$$ ##$DRU= yes
$$ ##$DRUETH01= <149.236.99.89>
$$ ##$DRUETH02= <no>
$$ ##$DRUETH03= <no>
$$ ##$DRUETH04= <no>
$$ ##$DRUETH05= <no>
$$ ##$DRUETH06= <no>
$$ ##$DRUETH07= <no>
$$ ##$DRUETH08= <no>
$$ ##$DRUETH09= <no>
$$ ##$DRUETH10= <no>
$$ ##$DRUETH11= <no>
$$ ##$DRUETH12= <no>
$$ ##$DRUETH13= <no>
$$ ##$DRUETH14= <no>
$$ ##$DRUETH15= <no>
$$ ##$DRUETH16= <no>
$$ ##$DRUETH17= <no>
$$ ##$DRUETH18= <no>
$$ ##$DRUETH19= <no>
$$ ##$DRUETH20= <no>
$$ ##$DRUETH21= <no>
$$ ##$DRUETH22= <no>
$$ ##$DRUETH23= <no>
$$ ##$DRUETH24= <no>
$$ ##$DRUETH25= <no>
$$ ##$DRUETH26= <no>
$$ ##$DRUETH27= <no>
$$ ##$DRUETH28= <no>
$$ ##$DRUETH29= <no>
$$ ##$DRUETH30= <no>
$$ ##$DRUETH31= <no>
$$ ##$DRUETH32= <no>
$$ ##$FCUMEM= (0..7)
16777208 16777208 16777208 0 0 0 0 0
$$ ##$FCUPAL= (0..7)
0 0 0 0 0 0 0 0
$$ ##$FGSVTY= <no>
$$ ##$FQMIX= 0
$$ ##$FUNCMOD= <>
$$ ##$GCUTYPE= 10
$$ ##$GPREDEL= 1
$$ ##$GPSCUTY= <no>
$$ ##$GRADRES= 5
$$ ##$GTUTY= <no>
$$ ##$HFAC= 3
$$ ##$HPCU= 0
$$ ##$HPCUTY= <no>
$$ ##$HPTXLP= (0..3)
-1 -1 -1 -1
$$ ##$HPTXPI= (0..3)
0 0 0 0
$$ ##$HPTXPO= (0..3)
0 0 0 0
$$ ##$HPTXTY= (0..3)
0 0 0 0
$$ ##$IF451= 0
$$ ##$IFREQ= 1
$$ ##$INTFPR= 0
$$ ##$IPSOETH= <149.236.99.251>
$$ ##$LOCKTY= <no>
$$ ##$LOCSWID= 0
$$ ##$LOCSWIF= 0
$$ ##$M2FAC= 0
$$ ##$MAS= 0
$$ ##$MASETIME= 10
$$ ##$MASITIME= 10
$$ ##$MASTY= <no>
$$ ##$MAS_CT= 0
$$ ##$MAS_SG= 0
$$ ##$MAS_TO= 0
$$ ##$MEMPRM= 0
$$ ##$MHFAC= 0
$$ ##$MXFAC= 0
$$ ##$NAMPD1= <1H LNA>
$$ ##$NAMPD10= <>
$$ ##$NAMPD11= <>
$$ ##$NAMPD12= <>
$$ ##$NAMPD13= <>
$$ ##$NAMPD14= <>
$$ ##$NAMPD15= <>
$$ ##$NAMPD16= <>
$$ ##$NAMPD2= <XBB19F 2HS>
$$ ##$NAMPD3= <XBB19F 2HP>
$$ ##$NAMPD4= <2H>
$$ ##$NAMPD5= <>
$$ ##$NAMPD6= <>
$$ ##$NAMPD7= <>
$$ ##$NAMPD8= <>
$$ ##$NAMPD9= <>
$$ ##$NFCU= 3
$$ ##$NMRCH= 2
$$ ##$NMRMEM= 16384
$$ ##$NRCU= 1
$$ ##$NROUT= 0
$$ ##$NSGU= 3
$$ ##$PAMPF1= (0..15)
75 24 64 64 96 0 0 0 0 0 0 0 0 0 0 0
$$ ##$PAMPF2= (0..15)
0 0 0 0 0 0 0 0 0 0 0 0 0 0 0 0
$$ ##$PAMPF3= (0..15)
0 0 0 0 0 0 0 0 0 0 0 0 0 0 0 0
$$ ##$PAMPF4= (0..15)
0 0 0 0 0 0 0 0 0 0 0 0 0 0 0 0
$$ ##$PAMPF5= (0..15)
0 0 0 0 0 0 0 0 0 0 0 0 0 0 0 0
$$ ##$PAMPF6= (0..15)
0 0 0 0 0 0 0 0 0 0 0 0 0 0 0 0
$$ ##$PAMPF7= (0..15)
0 0 0 0 0 0 0 0 0 0 0 0 0 0 0 0
$$ ##$PAMPF8= (0..15)
0 0 0 0 0 0 0 0 0 0 0 0 0 0 0 0
$$ ##$PH4= 0
$$ ##$PHF4TY= <no>
$$ ##$POWCHK= no
$$ ##$PRAMD1= (0..7)
2 0 0 536870912 0 0 0 0
$$ ##$PRAMD10= (0..7)
0 0 0 0 0 0 0 0
$$ ##$PRAMD11= (0..7)
0 0 0 0 0 0 0 0
$$ ##$PRAMD12= (0..7)
0 0 0 0 0 0 0 0
$$ ##$PRAMD13= (0..7)
0 0 0 0 0 0 0 0
$$ ##$PRAMD14= (0..7)
0 0 0 0 0 0 0 0
$$ ##$PRAMD15= (0..7)
0 0 0 0 0 0 0 0
$$ ##$PRAMD16= (0..7)
0 0 0 0 0 0 0 0
$$ ##$PRAMD17= (0..7)
0 0 0 0 0 0 0 0
$$ ##$PRAMD18= (0..7)
0 0 0 0 0 0 0 0
$$ ##$PRAMD19= (0..7)
0 0 0 0 0 0 0 0
$$ ##$PRAMD2= (0..7)
2147483644 2131230719 2147483647 671088639 0 0 0 0
$$ ##$PRAMD20= (0..7)
0 0 0 0 0 0 0 0
$$ ##$PRAMD21= (0..7)
0 0 0 0 0 0 0 0
$$ ##$PRAMD3= (0..7)
2147483644 2147483647 2147483647 671088639 0 0 0 0
$$ ##$PRAMD4= (0..7)
0 1048576 0 536870912 0 1048576 0 536870912
$$ ##$PRAMD5= (0..7)
0 0 0 0 0 0 0 0
$$ ##$PRAMD6= (0..7)
0 0 0 0 0 0 0 0
$$ ##$PRAMD7= (0..7)
0 0 0 0 0 0 0 0
$$ ##$PRAMD8= (0..7)
0 0 0 0 0 0 0 0
$$ ##$PRAMD9= (0..7)
0 0 0 0 0 0 0 0
$$ ##$PRAMLED= (0..1)
15 15
$$ ##$PRAMP1= <tty10>
$$ ##$PRAMP2= <no>
$$ ##$PRAMP3= <no>
$$ ##$PRAMP4= <no>
$$ ##$PRAMP5= <no>
$$ ##$PRAMP6= <no>
$$ ##$PRAMP7= <no>
$$ ##$PRAMP8= <no>
$$ ##$PRAMPTP= 1
$$ ##$PREPTY= <no>
$$ ##$PRESHLD= 0
$$ ##$PTS160= -1
$$ ##$PTSA2X= (0..7)
0 0 0 0 0 0 0 0
$$ ##$PTSF2X= (0..7)
0 0 0 0 0 0 0 0
$$ ##$PTSFMX= (0..7)
643.52499 643.52499 643.52499 0 0 0 0 0
$$ ##$PULCHK= no
$$ ##$RCUCDS= (0..7)
0 0 0 0 0 0 0 0
$$ ##$RCUCFS= (0..7)
0 0 0 0 0 0 0 0
$$ ##$RCUCSS= (0..7)
0 0 0 0 0 0 0 0
$$ ##$RCUI2C1= (0..7)
0 0 0 0 0 0 0 0
$$ ##$RCUI2C2= (0..7)
0 0 0 0 0 0 0 0
$$ ##$RCUI2C3= (0..7)
0 0 0 0 0 0 0 0
$$ ##$RCUI2C4= (0..7)
0 0 0 0 0 0 0 0
$$ ##$RCUI2C5= (0..7)
0 0 0 0 0 0 0 0
$$ ##$RCUI2C6= (0..7)
0 0 0 0 0 0 0 0
$$ ##$RCUI2C7= (0..7)
0 0 0 0 0 0 0 0
$$ ##$RCUI2C8= (0..7)
0 0 0 0 0 0 0 0
$$ ##$RDCU= 0
$$ ##$RFSVTY= <no>
$$ ##$RGTYPE= (0..31)
9 0 0 0 0 0 0 0 0 0 0 0 0 0 0 0 0 0 0 0 0 0 0 0 0 0 0 0 0 0 0 0
$$ ##$RG_max= (0..31)
46300 0 0 0 0 0 0 0 0 0 0 0 0 0 0 0 0 0 0 0 0 0 0 0 0 0 0 0 0 0 0 0
$$ ##$RG_min= (0..31)
0.25 0 0 0 0 0 0 0 0 0 0 0 0 0 0 0 0 0 0 0 0 0 0 0 0 0 0 0 0 0 0 0
$$ ##$RG_tab1= (0..255)
0.25 0.28 0.32 0.35 0.4 0.44 0.5 0.56 0.64 0.7 0.8 0.89 1 1.12 1.28 1.4
1.6 1.78 2 2.25 2.56 2.8 3.2 3.56 4 4.5 5 5.6 6.35 7.12 8 9 10 11.3 12.7
14.2 16 18 20.2 22.6 25.4 28.5 32 36 40.3 45.2 50.8 57 64 71.8 80.6 90.5
101 114 128 144 161 181 203 228 256 287 322 362 406 456 512 575 645 724
812 912 1030 1150 1290 1440 1620 1820 2050 -1 -1 -1 -1 -1 -1 -1 -1 -1 -1
-1 -1 -1 -1 -1 -1 -1 -1 -1 -1 -1 -1 -1 -1 -1 -1 -1 -1 -1 -1 -1 -1 -1 -1
-1 -1 -1 -1 -1 -1 -1 -1 -1 -1 -1 -1 -1 -1 -1 -1 -1 -1 -1 -1 -1 -1 -1 -1
-1 -1 -1 -1 -1 -1 -1 -1 -1 -1 -1 -1 -1 -1 -1 -1 -1 -1 -1 -1 -1 -1 -1 -1
-1 -1 -1 -1 -1 -1 -1 -1 -1 -1 -1 -1 -1 -1 -1 -1 -1 -1 -1 -1 -1 -1 -1 -1
-1 -1 -1 -1 -1 -1 -1 -1 -1 -1 -1 -1 -1 -1 -1 -1 -1 -1 -1 -1 -1 -1 -1 -1
-1 -1 -1 -1 -1 -1 -1 -1 -1 -1 -1 -1 -1 -1 -1 -1 -1 -1 -1 -1 -1 -1 -1 -1
-1 -1 -1 -1 -1 -1 -1 -1 -1 -1 -1 -1 -1 -1 -1 -1 -1 -1 -1 -1 -1 -1 -1
$$ ##$RG_tab2= (0..255)
-1 -1 -1 -1 -1 -1 -1 -1 -1 -1 -1 -1 -1 -1 -1 -1 -1 -1 -1 -1 -1 -1 -1 -1
-1 -1 -1 -1 -1 -1 -1 -1 -1 -1 -1 -1 -1 -1 -1 -1 -1 -1 -1 -1 -1 -1 -1 -1
-1 -1 -1 -1 -1 -1 -1 -1 -1 -1 -1 -1 -1 -1 -1 -1 -1 -1 -1 -1 -1 -1 -1 -1
-1 -1 -1 -1 -1 -1 -1 -1 -1 -1 -1 -1 -1 -1 -1 -1 -1 -1 -1 -1 -1 -1 -1 -1
-1 -1 -1 -1 -1 -1 -1 -1 -1 -1 -1 -1 -1 -1 -1 -1 -1 -1 -1 -1 -1 -1 -1 -1
-1 -1 -1 -1 -1 -1 -1 -1 -1 -1 -1 -1 -1 -1 -1 -1 -1 -1 -1 -1 -1 -1 -1 -1
-1 -1 -1 -1 -1 -1 -1 -1 -1 -1 -1 -1 -1 -1 -1 -1 -1 -1 -1 -1 -1 -1 -1 -1
-1 -1 -1 -1 -1 -1 -1 -1 -1 -1 -1 -1 -1 -1 -1 -1 -1 -1 -1 -1 -1 -1 -1 -1
-1 -1 -1 -1 -1 -1 -1 -1 -1 -1 -1 -1 -1 -1 -1 -1 -1 -1 -1 -1 -1 -1 -1 -1
-1 -1 -1 -1 -1 -1 -1 -1 -1 -1 -1 -1 -1 -1 -1 -1 -1 -1 -1 -1 -1 -1 -1 -1
-1 -1 -1 -1 -1 -1 -1 -1 -1 -1 -1 -1 -1 -1 -1 -1
$$ ##$RG_tab3= (0..255)
-1 -1 -1 -1 -1 -1 -1 -1 -1 -1 -1 -1 -1 -1 -1 -1 -1 -1 -1 -1 -1 -1 -1 -1
-1 -1 -1 -1 -1 -1 -1 -1 -1 -1 -1 -1 -1 -1 -1 -1 -1 -1 -1 -1 -1 -1 -1 -1
-1 -1 -1 -1 -1 -1 -1 -1 -1 -1 -1 -1 -1 -1 -1 -1 -1 -1 -1 -1 -1 -1 -1 -1
-1 -1 -1 -1 -1 -1 -1 -1 -1 -1 -1 -1 -1 -1 -1 -1 -1 -1 -1 -1 -1 -1 -1 -1
-1 -1 -1 -1 -1 -1 -1 -1 -1 -1 -1 -1 -1 -1 -1 -1 -1 -1 -1 -1 -1 -1 -1 -1
-1 -1 -1 -1 -1 -1 -1 -1 -1 -1 -1 -1 -1 -1 -1 -1 -1 -1 -1 -1 -1 -1 -1 -1
-1 -1 -1 -1 -1 -1 -1 -1 -1 -1 -1 -1 -1 -1 -1 -1 -1 -1 -1 -1 -1 -1 -1 -1
-1 -1 -1 -1 -1 -1 -1 -1 -1 -1 -1 -1 -1 -1 -1 -1 -1 -1 -1 -1 -1 -1 -1 -1
-1 -1 -1 -1 -1 -1 -1 -1 -1 -1 -1 -1 -1 -1 -1 -1 -1 -1 -1 -1 -1 -1 -1 -1
-1 -1 -1 -1 -1 -1 -1 -1 -1 -1 -1 -1 -1 -1 -1 -1 -1 -1 -1 -1 -1 -1 -1 -1
-1 -1 -1 -1 -1 -1 -1 -1 -1 -1 -1 -1 -1 -1 -1 -1
$$ ##$RG_tab4= (0..255)
-1 -1 -1 -1 -1 -1 -1 -1 -1 -1 -1 -1 -1 -1 -1 -1 -1 -1 -1 -1 -1 -1 -1 -1
-1 -1 -1 -1 -1 -1 -1 -1 -1 -1 -1 -1 -1 -1 -1 -1 -1 -1 -1 -1 -1 -1 -1 -1
-1 -1 -1 -1 -1 -1 -1 -1 -1 -1 -1 -1 -1 -1 -1 -1 -1 -1 -1 -1 -1 -1 -1 -1
-1 -1 -1 -1 -1 -1 -1 -1 -1 -1 -1 -1 -1 -1 -1 -1 -1 -1 -1 -1 -1 -1 -1 -1
-1 -1 -1 -1 -1 -1 -1 -1 -1 -1 -1 -1 -1 -1 -1 -1 -1 -1 -1 -1 -1 -1 -1 -1
-1 -1 -1 -1 -1 -1 -1 -1 -1 -1 -1 -1 -1 -1 -1 -1 -1 -1 -1 -1 -1 -1 -1 -1
-1 -1 -1 -1 -1 -1 -1 -1 -1 -1 -1 -1 -1 -1 -1 -1 -1 -1 -1 -1 -1 -1 -1 -1
-1 -1 -1 -1 -1 -1 -1 -1 -1 -1 -1 -1 -1 -1 -1 -1 -1 -1 -1 -1 -1 -1 -1 -1
-1 -1 -1 -1 -1 -1 -1 -1 -1 -1 -1 -1 -1 -1 -1 -1 -1 -1 -1 -1 -1 -1 -1 -1
-1 -1 -1 -1 -1 -1 -1 -1 -1 -1 -1 -1 -1 -1 -1 -1 -1 -1 -1 -1 -1 -1 -1 -1
-1 -1 -1 -1 -1 -1 -1 -1 -1 -1 -1 -1 -1 -1 -1 -1
$$ ##$RG_tab5= (0..255)
-1 -1 -1 -1 -1 -1 -1 -1 -1 -1 -1 -1 -1 -1 -1 -1 -1 -1 -1 -1 -1 -1 -1 -1
-1 -1 -1 -1 -1 -1 -1 -1 -1 -1 -1 -1 -1 -1 -1 -1 -1 -1 -1 -1 -1 -1 -1 -1
-1 -1 -1 -1 -1 -1 -1 -1 -1 -1 -1 -1 -1 -1 -1 -1 -1 -1 -1 -1 -1 -1 -1 -1
-1 -1 -1 -1 -1 -1 -1 -1 -1 -1 -1 -1 -1 -1 -1 -1 -1 -1 -1 -1 -1 -1 -1 -1
-1 -1 -1 -1 -1 -1 -1 -1 -1 -1 -1 -1 -1 -1 -1 -1 -1 -1 -1 -1 -1 -1 -1 -1
-1 -1 -1 -1 -1 -1 -1 -1 -1 -1 -1 -1 -1 -1 -1 -1 -1 -1 -1 -1 -1 -1 -1 -1
-1 -1 -1 -1 -1 -1 -1 -1 -1 -1 -1 -1 -1 -1 -1 -1 -1 -1 -1 -1 -1 -1 -1 -1
-1 -1 -1 -1 -1 -1 -1 -1 -1 -1 -1 -1 -1 -1 -1 -1 -1 -1 -1 -1 -1 -1 -1 -1
-1 -1 -1 -1 -1 -1 -1 -1 -1 -1 -1 -1 -1 -1 -1 -1 -1 -1 -1 -1 -1 -1 -1 -1
-1 -1 -1 -1 -1 -1 -1 -1 -1 -1 -1 -1 -1 -1 -1 -1 -1 -1 -1 -1 -1 -1 -1 -1
-1 -1 -1 -1 -1 -1 -1 -1 -1 -1 -1 -1 -1 -1 -1 -1
$$ ##$RG_tab6= (0..255)
-1 -1 -1 -1 -1 -1 -1 -1 -1 -1 -1 -1 -1 -1 -1 -1 -1 -1 -1 -1 -1 -1 -1 -1
-1 -1 -1 -1 -1 -1 -1 -1 -1 -1 -1 -1 -1 -1 -1 -1 -1 -1 -1 -1 -1 -1 -1 -1
-1 -1 -1 -1 -1 -1 -1 -1 -1 -1 -1 -1 -1 -1 -1 -1 -1 -1 -1 -1 -1 -1 -1 -1
-1 -1 -1 -1 -1 -1 -1 -1 -1 -1 -1 -1 -1 -1 -1 -1 -1 -1 -1 -1 -1 -1 -1 -1
-1 -1 -1 -1 -1 -1 -1 -1 -1 -1 -1 -1 -1 -1 -1 -1 -1 -1 -1 -1 -1 -1 -1 -1
-1 -1 -1 -1 -1 -1 -1 -1 -1 -1 -1 -1 -1 -1 -1 -1 -1 -1 -1 -1 -1 -1 -1 -1
-1 -1 -1 -1 -1 -1 -1 -1 -1 -1 -1 -1 -1 -1 -1 -1 -1 -1 -1 -1 -1 -1 -1 -1
-1 -1 -1 -1 -1 -1 -1 -1 -1 -1 -1 -1 -1 -1 -1 -1 -1 -1 -1 -1 -1 -1 -1 -1
-1 -1 -1 -1 -1 -1 -1 -1 -1 -1 -1 -1 -1 -1 -1 -1 -1 -1 -1 -1 -1 -1 -1 -1
-1 -1 -1 -1 -1 -1 -1 -1 -1 -1 -1 -1 -1 -1 -1 -1 -1 -1 -1 -1 -1 -1 -1 -1
-1 -1 -1 -1 -1 -1 -1 -1 -1 -1 -1 -1 -1 -1 -1 -1
$$ ##$RG_tab7= (0..255)
-1 -1 -1 -1 -1 -1 -1 -1 -1 -1 -1 -1 -1 -1 -1 -1 -1 -1 -1 -1 -1 -1 -1 -1
-1 -1 -1 -1 -1 -1 -1 -1 -1 -1 -1 -1 -1 -1 -1 -1 -1 -1 -1 -1 -1 -1 -1 -1
-1 -1 -1 -1 -1 -1 -1 -1 -1 -1 -1 -1 -1 -1 -1 -1 -1 -1 -1 -1 -1 -1 -1 -1
-1 -1 -1 -1 -1 -1 -1 -1 -1 -1 -1 -1 -1 -1 -1 -1 -1 -1 -1 -1 -1 -1 -1 -1
-1 -1 -1 -1 -1 -1 -1 -1 -1 -1 -1 -1 -1 -1 -1 -1 -1 -1 -1 -1 -1 -1 -1 -1
-1 -1 -1 -1 -1 -1 -1 -1 -1 -1 -1 -1 -1 -1 -1 -1 -1 -1 -1 -1 -1 -1 -1 -1
-1 -1 -1 -1 -1 -1 -1 -1 -1 -1 -1 -1 -1 -1 -1 -1 -1 -1 -1 -1 -1 -1 -1 -1
-1 -1 -1 -1 -1 -1 -1 -1 -1 -1 -1 -1 -1 -1 -1 -1 -1 -1 -1 -1 -1 -1 -1 -1
-1 -1 -1 -1 -1 -1 -1 -1 -1 -1 -1 -1 -1 -1 -1 -1 -1 -1 -1 -1 -1 -1 -1 -1
-1 -1 -1 -1 -1 -1 -1 -1 -1 -1 -1 -1 -1 -1 -1 -1 -1 -1 -1 -1 -1 -1 -1 -1
-1 -1 -1 -1 -1 -1 -1 -1 -1 -1 -1 -1 -1 -1 -1 -1
$$ ##$RG_tab8= (0..255)
-1 -1 -1 -1 -1 -1 -1 -1 -1 -1 -1 -1 -1 -1 -1 -1 -1 -1 -1 -1 -1 -1 -1 -1
-1 -1 -1 -1 -1 -1 -1 -1 -1 -1 -1 -1 -1 -1 -1 -1 -1 -1 -1 -1 -1 -1 -1 -1
-1 -1 -1 -1 -1 -1 -1 -1 -1 -1 -1 -1 -1 -1 -1 -1 -1 -1 -1 -1 -1 -1 -1 -1
-1 -1 -1 -1 -1 -1 -1 -1 -1 -1 -1 -1 -1 -1 -1 -1 -1 -1 -1 -1 -1 -1 -1 -1
-1 -1 -1 -1 -1 -1 -1 -1 -1 -1 -1 -1 -1 -1 -1 -1 -1 -1 -1 -1 -1 -1 -1 -1
-1 -1 -1 -1 -1 -1 -1 -1 -1 -1 -1 -1 -1 -1 -1 -1 -1 -1 -1 -1 -1 -1 -1 -1
-1 -1 -1 -1 -1 -1 -1 -1 -1 -1 -1 -1 -1 -1 -1 -1 -1 -1 -1 -1 -1 -1 -1 -1
-1 -1 -1 -1 -1 -1 -1 -1 -1 -1 -1 -1 -1 -1 -1 -1 -1 -1 -1 -1 -1 -1 -1 -1
-1 -1 -1 -1 -1 -1 -1 -1 -1 -1 -1 -1 -1 -1 -1 -1 -1 -1 -1 -1 -1 -1 -1 -1
-1 -1 -1 -1 -1 -1 -1 -1 -1 -1 -1 -1 -1 -1 -1 -1 -1 -1 -1 -1 -1 -1 -1 -1
-1 -1 -1 -1 -1 -1 -1 -1 -1 -1 -1 -1 -1 -1 -1 -1
$$ ##$RG_tabA= (0..255)
0.25 0.28 0.32 0.35 0.4 0.44 0.5 0.56 0.64 0.7 0.8 0.89 1 1.12 1.28 1.4
1.6 1.78 2 2.25 2.56 2.8 3.2 3.56 4 4.5 5 5.6 6.35 7.12 8 9 10 11.3 12.7
14.2 16 18 20.2 22.6 25.4 28.5 32 36 40.3 45.2 50.8 57 64 71.8 80.6 90.5
101 114 128 144 161 181 203 228 256 287 322 362 406 456 512 575 645 724
812 912 1030 1150 1290 1440 1620 1820 2050 -1 -1 -1 -1 -1 -1 -1 -1 -1 -1
-1 -1 -1 -1 -1 -1 -1 -1 -1 -1 -1 -1 -1 -1 -1 -1 -1 -1 -1 -1 -1 -1 -1 -1
-1 -1 -1 -1 -1 -1 -1 -1 -1 -1 -1 -1 -1 -1 -1 -1 -1 -1 -1 -1 -1 -1 -1 -1
-1 -1 -1 -1 -1 -1 -1 -1 -1 -1 -1 -1 -1 -1 -1 -1 -1 -1 -1 -1 -1 -1 -1 -1
-1 -1 -1 -1 -1 -1 -1 -1 -1 -1 -1 -1 -1 -1 -1 -1 -1 -1 -1 -1 -1 -1 -1 -1
-1 -1 -1 -1 -1 -1 -1 -1 -1 -1 -1 -1 -1 -1 -1 -1 -1 -1 -1 -1 -1 -1 -1 -1
-1 -1 -1 -1 -1 -1 -1 -1 -1 -1 -1 -1 -1 -1 -1 -1 -1 -1 -1 -1 -1 -1 -1 -1
-1 -1 -1 -1 -1 -1 -1 -1 -1 -1 -1 -1 -1 -1 -1 -1 -1 -1 -1 -1 -1 -1 -1
$$ ##$ROUT14= (0..7)
0 0 0 0 0 0 0 0
$$ ##$ROUTER= -1
$$ ##$RX22TY= <no>
$$ ##$RXFMAX= (0..7)
647.5 -1 -1 -1 -1 -1 -1 -1
$$ ##$RXFMIN= (0..7)
5 -1 -1 -1 -1 -1 -1 -1
$$ ##$RXINTLV= (0..7)
1 0 0 0 0 0 0 0
$$ ##$RXMSTY= <no>
$$ ##$SCMTY= <no>
$$ ##$SGUC1= (0..15)
33 34 17 0 0 0 0 0 0 0 0 0 0 0 0 0
$$ ##$SGUC2= (0..15)
36 256 35 0 0 0 0 0 0 0 0 0 0 0 0 0
$$ ##$SPECTR= 10
$$ ##$SY2FLAG= 0
$$ ##$TFXNUM= 0
$$ ##$TRIPLO2= 0
$$ ##$VTUTY= <tty05>
$$ ##$WBREFAM= (0..15)
100 100 100 100 100 100 100 100 100 100 100 100 100 100 100 100
$$ ##$WBREFPH= (0..15)
0 0 0 0 0 0 0 0 0 0 0 0 0 0 0 0
$$ ##$XFAC= 2
$$ ##END=
##$RELAX= 
##$BRUKER FILE PROC=clevels
$$ ##TITLE= Parameter file, TopSpin 3.5.b.91 pl 7
$$ ##JCAMPDX= 5.0
$$ ##DATATYPE= Parameter Values
$$ ##NPOINTS= 72	$$ modification sequence number
$$ ##ORIGIN= Bruker BioSpin GmbH
$$ ##OWNER= NMR_mess
$$ $$ 2019-10-30 06:48:11.115 +0100  nes@nmr-nesnotebook
$$ $$ D:/SciPrograms/Bruker/TopSpin3.5.b.91pl7/data/nes/nmr/Menthol_dmso_CMC/5/pdata/1/clevels
$$ $$ process D:\SciPrograms\Bruker\TopSpin3.5.b.91pl7\prog\mod\dataserver.exe
$$ ##$LEVELS= (0..255)
$$ -11398108.0902816 -6332282.27237867 -3517934.59576594 -1954408.10875884
$$ -1085782.28264381 -603212.379246558 -335117.988470309 -186176.660261283
$$ 186176.660261283 335117.988470309 603212.379246558 1085782.28264381 1954408.10875884
$$ 3517934.59576594 6332282.27237867 11398108.0902816 0 0 0 0 0 0 0 0 0 0
$$ 0 0 0 0 0 0 0 0 0 0 0 0 0 0 0 0 0 0 0 0 0 0 0 0 0 0 0 0 0 0 0 0 0 0 0 0
$$ 0 0 0 0 0 0 0 0 0 0 0 0 0 0 0 0 0 0 0 0 0 0 0 0 0 0 0 0 0 0 0 0 0 0 0 0
$$ 0 0 0 0 0 0 0 0 0 0 0 0 0 0 0 0 0 0 0 0 0 0 0 0 0 0 0 0 0 0 0 0 0 0 0 0
$$ 0 0 0 0 0 0 0 0 0 0 0 0 0 0 0 0 0 0 0 0 0 0 0 0 0 0 0 0 0 0 0 0 0 0 0 0
$$ 0 0 0 0 0 0 0 0 0 0 0 0 0 0 0 0 0 0 0 0 0 0 0 0 0 0 0 0 0 0 0 0 0 0 0 0
$$ 0 0 0 0 0 0 0 0 0 0 0 0 0 0 0 0 0 0 0 0 0 0 0 0 0 0 0 0 0 0 0 0 0 0 0 0
$$ 0 0 0 0 0 0 0 0 0 0 0 0 0 0
$$ ##$LEVSIGN= 3
$$ ##$MAXLEV= 8
$$ ##$METHOD= 0
$$ ##$NEGBASE= -3312
$$ ##$NEGINCR= 1.8
$$ ##$POSBASE= 3312
$$ ##$POSINCR= 1.8
$$ ##END=
##$RELAX= 
$$ Bruker specific parameters
$$ --------------------------
##$DATPATH= <D:\SciPrograms\Bruker\TopSpin3.5.b.91pl7\data\nes\nmr>
##$EXPNO= 5
##$NAME= <Displayer_2216-51-5>
##$PROCNO= 1
##$ACQT0= 1000000
##$AMP= (0..31)
100 100 100 100 100 100 100 100 100 100 100 100 100 100 100 100 100 100
100 100 100 100 100 100 100 100 100 100 100 100 100 100
##$AMPCOIL= (0..19)
0 0 0 0 0 0 0 0 0 0 0 0 0 0 0 0 0 0 0 0
##$ANAVPT= -1
##$AQSEQ= 0
##$AQ_mod= 3
##$AUNM= <au_getlcosy>
##$AUTOPOS= <>
##$BF1= 600.2
##$BF2= 600.2
##$BF3= 600.2
##$BF4= 600.24
##$BF5= 299.87
##$BF6= 299.87
##$BF7= 299.87
##$BF8= 299.87
##$BWFAC= (0..63)
0 0 0 0 0 0 0 0 0 0 0 0 0 0 0 0 0 0 0 0 0 0 0 0 0 0 0 0 0 0 0 0 0 0 0 0
0 0 0 0 0 0 0 0 0 0 0 0 0 0 0 0 0 0 0 0 0 0 0 0 0 0 0 0
##$BYTORDA= 0
##$CAGPARS= (0..11)
0 0 0 0 0 0 0 0 0 0 0 0
##$CHEMSTR= <none>
##$CNST= (0..63)
1 1 145 1 1 1 1 1 1 1 1 1 1 1 1 1 1 1 1 1 1 20 20 60 1 1 1 1 1 1 1 1 1
1 1 1 1 1 1 1 1 1 1 1 1 1 1 1 1 1 1 1 1 1 1 1 1 1 1 1 1 1 1 1
##$CPDPRG= (0..8)
<> <> <> <> <mlev> <mlev> <mlev> <mlev> <mlev>
##$D= (0..63)
3e-006 1.5 0 0 0 0 0 0 0 0 0 0.03 2e-005 4e-006 0 0 0.0005 0 0 0 0 0 0
0 0 0 0 0 0 0 0 0 0 0 0 0 0 0 0 0 0 0 0 0 0 0 0 0 0 0 0 0 0 0 0 0 0 0 0
0 0 0 0 0
##$DATE= 1480687813
##$DE= 6
##$DECBNUC= <off>
##$DECIM= 5845.33333333333
##$DECNUC= <off>
##$DECSTAT= 4
##$DIGMOD= 1
##$DIGTYP= 12
##$DQDMODE= 0
##$DR= 23
##$DS= 8
##$DSPFIRM= 0
##$DSPFVS= 20
##$DTYPA= 0
##$EXP= <hh_cosy_bbo.nes>
##$FCUCHAN= (0..9)
0 2 0 0 0 0 0 0 0 0
##$FL1= 90
##$FL2= 90
##$FL3= 90
##$FL4= 90
##$FN_INDIRECT= (0..7)
0 0 0 0 0 0 0 0
##$FOV= 20
##$FQ1LIST= <freqlist>
##$FQ2LIST= <freqlist>
##$FQ3LIST= <freqlist>
##$FQ4LIST= <freqlist>
##$FQ5LIST= <freqlist>
##$FQ6LIST= <freqlist>
##$FQ7LIST= <freqlist>
##$FQ8LIST= <freqlist>
##$FRQLO3= 1248814.8525
##$FRQLO3N= 0
##$FS= (0..7)
83 83 83 83 83 83 83 83
##$FTLPGN= 0
##$FW= 125000
##$FnILOOP= 0
##$FnMODE= 0
##$FnTYPE= 0
##$GPNAM= (0..31)
<SINE.100> <SINE.100> <SINE.100> <SINE.100> <SINE.100> <SINE.100> <SINE.100>
<SINE.100> <SINE.100> <SINE.100> <SINE.100> <SINE.100> <SINE.100> <SINE.100>
<SINE.100> <SINE.100> <SINE.100> <SINE.100> <SINE.100> <SINE.100> <SINE.100>
<SINE.100> <SINE.100> <SINE.100> <SINE.100> <SINE.100> <SINE.100> <SINE.100>
<SINE.100> <SINE.100> <SINE.100> <SINE.100>
##$GPX= (0..31)
0 0 0 0 0 0 0 0 0 0 0 0 0 0 0 0 0 0 0 0 0 0 0 0 0 0 0 0 0 0 0 0
##$GPY= (0..31)
0 0 0 0 0 0 0 0 0 0 0 0 0 0 0 0 0 0 0 0 0 0 0 0 0 0 0 0 0 0 0 0
##$GPZ= (0..31)
0 10 10 40 0 0 0 0 0 0 0 0 0 0 0 0 0 0 0 0 0 0 0 0 0 0 0 0 0 0 0 0
##$GRDPROG= <grad_out>
##$GRPDLY= 67.9850921630859
##$HDDUTY= 20
##$HDRATE= 20
##$HGAIN= (0..3)
0 0 0 0
##$HL1= 128
##$HL2= 90
##$HL3= 90
##$HL4= 90
##$HOLDER= 0
##$HPMOD= (0..7)
0 0 0 0 0 0 0 0
##$HPPRGN= 0
##$IN= (0..63)
0.00029225 0.001 0.001 0.001 0.001 0.001 0.001 0.001 0.001 0.001 0.001
0.001 0.001 0.001 0.001 0.001 0.001 0.001 0.001 0.001 0.001 0.001 0.001
0.001 0.001 0.001 0.001 0.001 0.001 0.001 0.001 0.001 0.001 0.001 0.001
0.001 0.001 0.001 0.001 0.001 0.001 0.001 0.001 0.001 0.001 0.001 0.001
0.001 0.001 0.001 0.001 0.001 0.001 0.001 0.001 0.001 0.001 0.001 0.001
0.001 0.001 0.001 0.001 0.001
##$INF= (0..7)
0 292.266657076667 0 0 0 0 0 0
##$INP= (0..63)
0 0 0 0 0 0 0 0 0 0 0 0 0 0 0 0 0 0 0 0 0 0 0 0 0 0 0 0 0 0 0 0 0 0 0 0
0 0 0 0 0 0 0 0 0 0 0 0 0 0 0 0 0 0 0 0 0 0 0 0 0 0 0 0
##$INSTRUM= <spect>
##$INTEGFAC= (0..63)
0 0 0 0 0 0 0 0 0 0 0 0 0 0 0 0 0 0 0 0 0 0 0 0 0 0 0 0 0 0 0 0 0 0 0 0
0 0 0 0 0 0 0 0 0 0 0 0 0 0 0 0 0 0 0 0 0 0 0 0 0 0 0 0
##$L= (0..31)
1 28 1 1 1 28 1 1 1 1 1 1 1 1 1 1 1 1 1 1 1 1 1 1 1 1 1 1 1 1 1 1
##$LFILTER= 200
##$LGAIN= 5
##$LINPSTP= 0
##$LOCKED= yes
##$LOCKFLD= 5606
##$LOCKGN= 104.146690368652
##$LOCKPOW= -29.9999942779541
##$LOCKPPM= 2.49000000953674
##$LOCNUC= <2H>
##$LOCPHAS= 95
##$LOCSHFT= yes
##$LOCSW= 0
##$LTIME= 0.25
##$MASR= 4200
##$MASRLST= <masrlst>
##$MULEXPNO= (0..15)
0 0 0 0 0 0 0 0 0 0 0 0 0 0 0 0
##$NBL= 1
##$NC= -7
##$NLOGCH= 3
##$NOVFLW= 0
##$NS= 2
##$NUC1= <1H>
##$NUC2= <off>
##$NUC3= <off>
##$NUC4= <off>
##$NUC5= <off>
##$NUC6= <off>
##$NUC7= <off>
##$NUC8= <off>
##$NUCLEUS= <off>
##$NUSLIST= <>
##$NusAMOUNT= 0
##$NusFPNZ= no
##$NusJSP= 0
##$NusSEED= 0
##$NusSPTYPE= 0
##$NusT2= 0
##$NusTD= 0
##$O1= 1380.46
##$O2= 3608.76
##$O3= 3608.76
##$O4= 3608.7580556341
##$O5= 200260000
##$O6= 200260000
##$O7= 200260000
##$O8= 200260000
##$OVERFLW= 0
##$P= (0..63)
14.5 14.5 22 100 13 16.5 25 50 13.2 100 0 0 0 22 22 2500 1000 2500 1800000
300000 25 0 0 0 0 0 2500 0 0 500 0 0 0 0 0 0 0 0 0 0 0 0 0 0 0 0 0 0 0
0 0 0 0 0 0 0 0 0 0 0 0 0 0 0
##$PACOIL= (0..15)
0 0 0 0 0 0 0 0 0 0 0 0 0 0 0 0
##$PAPS= 2
##$PARMODE= 1
##$PCPD= (0..9)
100 100 100 100 100 100 100 100 100 100
##$PEXSEL= (0..9)
1 1 1 1 1 1 1 1 1 1
##$PHCOR= (0..31)
0 0 0 0 0 0 0 0 0 0 0 0 0 0 0 0 0 0 0 0 0 0 0 0 0 0 0 0 0 0 0 0
##$PHLIST= <>
##$PHP= 1
##$PH_ref= 0
##$PL= (0..63)
120 0 120 120 120 120 120 120 120 120 120 120 120 120 120 120 120 120 120
120 120 120 120 120 120 120 120 120 120 120 120 120 120 120 120 120 120
120 120 120 120 120 120 120 120 120 120 120 120 120 120 120 120 120 120
120 120 120 120 120 120 120 120 120
##$PLSTEP= 0.1
##$PLSTRT= -6
##$PLW= (0..63)
-1 -1 -1 -1 -1 -1 -1 -1 -1 -1 -1 -1 -1 -1 -1 -1 -1 -1 -1 -1 -1 -1 -1 -1
-1 -1 -1 -1 -1 -1 -1 -1 -1 -1 -1 -1 -1 -1 -1 -1 -1 -1 -1 -1 -1 -1 -1 -1
-1 -1 -1 -1 -1 -1 -1 -1 -1 -1 -1 -1 -1 -1 -1 -1
##$PLWMAX= (0..7)
0 0 0 0 0 0 0 0
##$PQPHASE= 0
##$PQSCALE= 0
##$PR= 1
##$PRECHAN= (0..15)
-1 1 0 2 -1 -1 -1 -1 -1 3 -1 -1 -1 -1 -1 -1
##$PRGAIN= 0
##$PROBHD= <5 mm BBO BB-1H/D Z-GRD Z8478/0071
>
##$PULPROG= <cosygpqf>
##$PW= 0
##$PYNM= <acqu.py>
##$ProjAngle= 0
##$QNP= 1
##$RD= 0
##$RECCHAN= (0..15)
0 2 0 0 0 0 0 0 0 0 0 0 0 0 0 0
##$RECPH= 0
##$RECPRE= (0..15)
-1 0 -1 -1 -1 -1 -1 -1 -1 -1 -1 -1 -1 -1 -1 -1
##$RECPRFX= (0..15)
-1 0 0 0 0 0 0 0 0 0 0 0 0 0 0 0
##$RECSEL= (0..15)
0 0 1 0 0 0 0 0 0 0 0 0 0 0 0 0
##$RG= 101
##$RO= 0
##$RSEL= (0..15)
0 0 2 0 0 0 0 0 0 0 0 0 0 0 0 0
##$S= (0..7)
83 83 83 83 83 83 83 83
##$SELREC= (0..9)
0 0 0 0 0 0 0 0 0 0
##$SFO1= 600.20138046
##$SFO2= 600.20360876
##$SFO3= 600.20360876
##$SFO4= 600.243608758056
##$SFO5= 500.13
##$SFO6= 500.13
##$SFO7= 500.13
##$SFO8= 500.13
##$SOLVENT= <DMSO>
##$SOLVOLD= <off>
##$SP= (0..63)
1 0 0 0 0 0 0 0 0 0 0 0 0 0 0 0 150 150 150 150 150 150 150 150 150 150
150 150 150 150 150 150 120 120 120 120 120 120 120 120 120 120 120 120
120 120 120 120 120 120 120 120 120 120 120 120 120 120 120 120 120 120
120 120
##$SPECTR= 0
##$SPINCNT= 0
##$SPNAM= (0..63)
<gauss> <gauss> <gauss> <gauss> <gauss> <gauss> <gauss> <gauss> <gauss>
<gauss> <gauss> <gauss> <gauss> <gauss> <gauss> <gauss> <gauss> <gauss>
<gauss> <gauss> <gauss> <gauss> <gauss> <gauss> <gauss> <gauss> <gauss>
<gauss> <gauss> <gauss> <gauss> <gauss> <> <> <> <> <> <> <> <> <> <> <>
<> <> <> <> <> <> <> <> <> <> <> <> <> <> <> <> <> <> <> <> <>
##$SPOAL= (0..63)
0.5 0.5 0.5 0.5 0.5 0.5 0.5 0.5 0.5 0.5 0.5 0.5 0.5 0.5 0.5 0.5 0.5 0.5
0.5 0.5 0.5 0.5 0.5 0.5 0.5 0.5 0.5 0.5 0.5 0.5 0.5 0.5 0.5 0.5 0.5 0.5
0.5 0.5 0.5 0.5 0.5 0.5 0.5 0.5 0.5 0.5 0.5 0.5 0.5 0.5 0.5 0.5 0.5 0.5
0.5 0.5 0.5 0.5 0.5 0.5 0.5 0.5 0.5 0.5
##$SPOFFS= (0..63)
0 0 0 0 0 0 0 0 0 0 0 0 0 0 0 0 0 0 0 0 0 0 0 0 0 0 0 0 0 0 0 0 0 0 0 0
0 0 0 0 0 0 0 0 0 0 0 0 0 0 0 0 0 0 0 0 0 0 0 0 0 0 0 0
##$SPPEX= (0..63)
0 0 0 0 0 0 0 0 0 0 0 0 0 0 0 0 0 0 0 0 0 0 0 0 0 0 0 0 0 0 0 0 0 0 0 0
0 0 0 0 0 0 0 0 0 0 0 0 0 0 0 0 0 0 0 0 0 0 0 0 0 0 0 0
##$SPW= (0..63)
0 0 0 0 0 0 0 0 0 0 0 0 0 0 0 0 0 0 0 0 0 0 0 0 0 0 0 0 0 0 0 0 0 0 0 0
0 0 0 0 0 0 0 0 0 0 0 0 0 0 0 0 0 0 0 0 0 0 0 0 0 0 0 0
##$SUBNAM= (0..9)
<""> <""> <""> <""> <""> <""> <""> <""> <""> <"">
##$SW= 5.70064141487484
##$SWIBOX= (0..19)
0 0 2 0 0 0 0 0 0 0 0 0 0 0 0 0 0 0 0 0
##$SW_h= 3421.53284671533
##$SWfinal= 0
##$SigLockShift= 0
##$TD= 2048
##$TD0= 1
##$TD_INDIRECT= (0..7)
0 0 0 0 0 0 0 0
##$TDav= 0
##$TE= 298
##$TE1= 300
##$TE2= 300
##$TE3= 300
##$TE4= 300
##$TEG= 300
##$TE_MAGNET= 300
##$TE_PIDX= 0
##$TE_STAB= (0..9)
0 0 0 0 0 0 0 0 0 0
##$TL= (0..7)
120 120 120 120 120 120 120 120
##$TOTROT= (0..63)
0 0 0 0 0 0 0 0 0 0 0 0 0 0 0 0 0 0 0 0 0 0 0 0 0 0 0 0 0 0 0 0 0 0 0 0
0 0 0 0 0 0 0 0 0 0 0 0 0 0 0 0 0 0 0 0 0 0 0 0 0 0 0 0
##$TUBE_TYPE= <>
##$USERA1= <user>
##$USERA2= <user>
##$USERA3= <user>
##$USERA4= <user>
##$USERA5= <user>
##$V9= 5
##$VALIDCODE= 0
##$VALIST= <valist>
##$VCLIST= <CCCCCCCCCCCCCCC>
##$VDLIST= <DDDDDDDDDDDDDDD>
##$VPLIST= <PPPPPPPPPPPPPPP>
##$VTLIST= <TTTTTTTTTTTTTTT>
##$WBST= 1024
##$WBSW= 4
##$XGAIN= (0..3)
0 0 0 0
##$XL= 0
##$YL= 0
##$YMAX_a= 1199213
##$YMIN_a= -1525685
##$ZGOPTNS= <>
##$ZL1= 120
##$ZL2= 120
##$ZL3= 120
##$ZL4= 120
##$ABSF1= 1000
##$ABSF2= -1000
##$ABSG= 5
##$ABSL= 3
##$ALPHA= 0
##$AQORDER= 0
##$ASSFAC= 0
##$ASSFACI= 0
##$ASSFACX= 0
##$ASSWID= 0
##$AUNMP= <proc_2dpl>
##$AXLEFT= 0
##$AXNAME= <F2>
##$AXNUC= <off>
##$AXRIGHT= 0
##$AXTYPE= 0
##$AXUNIT= <>
##$AZFE= 0.1
##$AZFW= 0.5
##$BCFW= 1
##$BC_mod= 2
##$BYTORDP= 0
##$COROFFS= 0
##$CY= 15
##$DATMOD= 1
##$DC= 1
##$DFILT= <>
##$DTYPP= 0
##$ERETIC= no
##$F1P= 5.15032720565796
##$F2P= -0.550327320692141
##$FCOR= 0.5
##$FTSIZE= 2048
##$FT_mod= 0
##$GAMMA= 1
##$GB= 0
##$INTBC= 1
##$INTSCL= 1
##$ISEN= 128
##$LB= 1
##$LEV0= 35
##$LPBIN= 0
##$MAXI= 1
##$MC2= 0
##$MEAN= 0
##$ME_mod= 0
##$MI= 0.001
##$MddCEXP= no
##$MddCT_SP= no
##$MddF180= no
##$MddLAMBDA= 0
##$MddMEMORY= 0
##$MddMERGE= 23
##$MddNCOMP= 0
##$MddNITER= 0
##$MddNOISE= 0.8
##$MddPHASE= 0
##$MddSEED= 0
##$MddSRSIZE= 0
##$Mdd_CsALG= 0
##$Mdd_CsLAMBDA= 1
##$Mdd_CsNITER= 0
##$Mdd_CsNORM= 0
##$Mdd_CsVE= yes
##$Mdd_CsZF= 0
##$Mdd_LrLAMBDA= 0
##$Mdd_LrNITER= 0
##$Mdd_LrRANK= 0
##$Mdd_LrZF= 0
##$Mdd_mod= 0
##$NCOEF= 0
##$NC_proc= 0
##$NLEV= 6
##$NOISF1= 0
##$NOISF2= 0
##$NSP= 1
##$NTH_PI= 0
##$NZP= 1
##$OFFSET= 5.150327
##$PC= 1.4
##$PHC0= 0
##$PHC1= 0
##$PH_mod= 0
##$PKNL= yes
##$PPARMOD= 1
##$PPDIAG= 10
##$PPIPTYP= 1
##$PPMPNUM= 2147483647
##$PPRESOL= 1
##$PSCAL= 0
##$PSIGN= 0
##$PYNMP= <proc.py>
##$RDF1= 0
##$RDF2= 0
##$RDFWHM= 0
##$RDINT= 0
##$RDPOS= 0
##$REVERSE= no
##$SF= 600.2
##$SI= 2048
##$SIGF1= 0
##$SIGF2= 0
##$SINO= 16
##$SIOLD= 2048
##$SPECTYP= <COSY>
##$SREF_mod= 1
##$SREGLST= <1H.MeOD>
##$SSB= 0
##$STSI= 0
##$STSR= 0
##$SW_p= 3421.53284671533
##$SYMM= 0
##$S_DEV= 0
##$TDeff= 0
##$TDoff= 0
##$TI= <>
##$TILT= no
##$TM1= 0
##$TM2= 0
##$TOPLEV= 100
##$USERP1= <user>
##$USERP2= <user>
##$USERP3= <user>
##$USERP4= <user>
##$USERP5= <user>
##$WDW= 3
##$XDIM= 64
##$YMAX_p= 0
##$YMIN_p= 0
##$CURPLOT= <printer>
##$CURPRIN= <$printer>
##$DFORMAT= <normdp>
##$LAYOUT= <+/2D_hom.xwp>
##$LFORMAT= <normlp>
##$PFORMAT= <normpl>
$$ Bruker specific parameters for F1
$$ ---------------------------------
##$ACQT0= 0
##$BF1= 600.2
##$FnMODE= 1
##$NUC1= <1H>
##$NusJSP= 0
##$NusT2= 0
##$NusTD= 0
##$O1= 1380.46
##$ProjAngle= 0
##$SFO1= 600.20138046
##$SW= 5.70064160192714
##$SW_h= 3421.53295898438
##$TD= 128
##$ABSF1= 1000
##$ABSF2= -1000
##$ABSG= 5
##$ABSL= 3
##$ALPHA= 0
##$AQORDER= 0
##$ASSFAC= 0
##$ASSFACI= 0
##$ASSFACX= 0
##$ASSWID= 0
##$AUNMP= <>
##$AXLEFT= 0
##$AXNAME= <F1>
##$AXNUC= <off>
##$AXRIGHT= 0
##$AXTYPE= 0
##$AXUNIT= <>
##$AZFE= 0.1
##$AZFW= 0.5
##$BCFW= 1
##$BC_mod= 0
##$BYTORDP= 0
##$COROFFS= 0
##$CY= 15
##$DATMOD= 1
##$DC= 1
##$DFILT= <>
##$DTYPP= 0
##$ERETIC= no
##$F1P= 5.15032720565796
##$F2P= -0.550327507744873
##$FCOR= 0.5
##$FTSIZE= 1024
##$FT_mod= 0
##$GAMMA= 1
##$GB= 0.1
##$INTBC= 1
##$INTSCL= 1
##$ISEN= 128
##$LB= 0.3
##$LEV0= 0
##$LPBIN= 0
##$MAXI= 10000
##$MC2= 0
##$MEAN= 0
##$ME_mod= 1
##$MI= 1
##$MddCEXP= no
##$MddCT_SP= no
##$MddF180= no
##$MddLAMBDA= 0
##$MddMEMORY= 0
##$MddMERGE= 23
##$MddNCOMP= 0
##$MddNITER= 0
##$MddNOISE= 0.8
##$MddPHASE= 0
##$MddSEED= 0
##$MddSRSIZE= 0
##$Mdd_CsALG= 0
##$Mdd_CsLAMBDA= 1
##$Mdd_CsNITER= 0
##$Mdd_CsNORM= 0
##$Mdd_CsVE= yes
##$Mdd_CsZF= 0
##$Mdd_LrLAMBDA= 0
##$Mdd_LrNITER= 0
##$Mdd_LrRANK= 0
##$Mdd_LrZF= 0
##$Mdd_mod= 0
##$NCOEF= 100
##$NC_proc= 0
##$NLEV= 6
##$NOISF1= 0
##$NOISF2= 0
##$NSP= 1
##$NTH_PI= 0
##$NZP= 1
##$OFFSET= 5.150327
##$PC= 4
##$PHC0= 0
##$PHC1= 0
##$PH_mod= 2
##$PKNL= yes
##$PPARMOD= 1
##$PPDIAG= 0
##$PPIPTYP= 0
##$PPMPNUM= 2147483647
##$PPRESOL= 1
##$PSCAL= 1
##$PSIGN= 0
##$PYNMP= <proc.py>
##$RDF1= 0
##$RDF2= 0
##$RDFWHM= 0
##$RDINT= 0
##$RDPOS= 0
##$REVERSE= no
##$SF= 600.2
##$SI= 2048
##$SIGF1= 0
##$SIGF2= 0
##$SINO= 16
##$SIOLD= 2048
##$SPECTYP= <>
##$SREF_mod= 1
##$SREGLST= <1H.MeOD>
##$SSB= 0
##$STSI= 0
##$STSR= 0
##$SW_p= 3421.53295898438
##$SYMM= 0
##$S_DEV= 0
##$TDeff= 0
##$TDoff= 0
##$TI= <>
##$TILT= no
##$TM1= 0.1
##$TM2= 0.9
##$TOPLEV= 0
##$USERP1= <user>
##$USERP2= <user>
##$USERP3= <user>
##$USERP4= <user>
##$USERP5= <user>
##$WDW= 4
##$XDIM= 64
##$YMAX_p= 0
##$YMIN_p= 0
$$ End of Bruker specific parameters
$$ ---------------------------------
##NTUPLES= nD NMR FID
##VAR_NAME=  TIME1,         TIME2,           FID/REAL,        FID/IMAG
##SYMBOL=    T1,            T2,              R,               I
##.NUCLEUS=  1H,            1H
##VAR_TYPE=  INDEPENDENT,   INDEPENDENT,     DEPENDENT,       DEPENDENT
##VAR_FORM=  AFFN,          AFFN,            ASDF,            ASDF
##VAR_DIM=   128,           1024,            1024,            1024
##UNITS=     SECONDS,       SECONDS,         ARBITRARY UNITS, ARBITRARY UNITS
##FACTOR=    0.000292266657076667, 0.000292266666666667, 1,   1
##FIRST=     0,             0,               0,               0
##LAST=      0.0371178654487367, 0.2989888,  -88816,          57815
##MIN=       0,             0,               -1525685,        -1525685
##MAX=       0.0371178654487367, 0.2989888,  1199213,         1199213
##PAGE= T1=0
[...]
559b57010A71961K4570a78035j4878A67704m199b09926P1091B10295G2615a91608
571d1752A32436C9119h9089K4262H0798O474h5407J1953H8021o299d6511n6546
583a03057D3954J28194e6947j37444A23386Q0885a54091q507A88269k5021a80071
595a57910B21443n2154b66018a16714C11606E3744b99237D78K60743b5829k15901
606b41730B4975K05386f2663j89671H2947J16616a32960k3016I6670j3454g8087
618a00295C3881P2888d7321p7010D2058N7841b5841n8180h031A16807D4123a63937
631a4924B20559a5446j89562F2931J41417e7297j42989G6885J66507i8620j52599
642b51219A59244O3851b05754M7810B18900j05479b06519R2742A97226q3486b12977
654h1950B18344A9368a99925A9407J31674a8857r6729a8703A07566C7669a20896
666b5251A08880F218g9314b9042E6923J2303h1360j9975A27969l3928a66544f7372
679A67552E2798a51893f0360A65399E9202b10343a9860B48178c2334k02604G1047
691A94735g6455q2173G5058Q0532i3742p2528A32056J4333a55164O2398A35180
703D6872i5573d1032G3364j7831h2720K1442I5038D3403g8807a9028D0901j0840
715C0061a0718n6848B5144P1176f0091l0957G4545k234f0980p155E1128L7155
727H8283f9815m0210A08762j3524a39410e5587A27979B3410a01400b2897I9010
739C4420a19955b5665A31490f956j06089C7773L7222c5922j3633H167N0497A1598
752g3213C318O1108b8139j3450B2271P183A3356c9042k761F0875k7886g2771A811
766F5027a7793l7356f150F1644k9559h0039a9599I0456a8160o3863D2570K0411
778F2981c3641j8653H012N1476d990o7017C3304L3548e6780J3355D3848j8317
790B5531a5863j2726F358L8043b3939k9703D5917l544d2923b0550A6126M92g97
804c4471A6463L0946d0412L183D4043A7802b5519i594C803J6712b052l3013B2169
818C2134c3558a3174A7679D712J707a8618Q051C8679d276m0392A8600J4324a5882
832a8057G95K1309C979d3207A2319L9978c1444l436C2823A3502a8423g331F797
846A4773a0145j2391B2082q241b3867E745p18a1967A8339e728k1610B1786l405
859A8381b4952a2354A9470m739b2893k015D2355j3584f8046a4240G5042a0407
872f3067B5500L1005b3215l4312C1351L5959d3750j9087F5052j3684f8819b4801
885F1580A3157d2768i439D5444A4846e1656a2725D3781F549b4443a0176a447A4630
899D419c7350c00D5650b5583m2048A6707N1586a7447p2693A3336P5049d6119m7350
912i3469G3183J2681i7415J6383A01277k7033i3101L5762A06260E0997a06707
924a2559A28249I728a03115A2430R1430H582f4496I370N6959B365d5306A7031
937E4475a621m2182b0203D1227M242d5568j9456C6046J0123f7294Q812G0385C4467
951a20229M8861A05605D4216a41988e2450A17312f259j34853A7726J12480e2501
963a43173E8556P4720e9393m6020G5672J2774g3306c5680A14009E0724h5797b5792
976I6106l7167b8657a0388C3265j4898i386E841L4308j285a7170m8009H76Q8686
989H9562H293i7554c851H9757d0283q3063D7409O7533h8283n6041G9233L4753
1001A13986a30934M300A30069m9347a63013g1814A51342B8535a66840a2003A63875
1013c754j53691A7694J23285c0396o9440F1705K7604e1215j6907E2229
##PAGE= T1=0.03682559879166
##FIRST=     0,             0,               0,               0
##DATA TABLE= (T2++(I..I)), PROFILE
0@@@@@bBbBdFfHa0A2a4A8b2B8c2C8d6E4f4G5h8A02a16A34a54A76a99B26b56B89
35c24C64d08D56e06E63f26F95g67H48i37A035a141A257a387A531a689A865b064
54B288b544B838c182C589d080D685e455F466g862I920a3254A9539c5400A74351
69A49083c69870h0629C35468C3780b74138C5293J82385F2356a08165c2200A86025
81A27538a26230b5488A83179o1773h4605m6860A44817J50042a12646j37953B31469
93B37015b81655Q7593B90495j04298c37515Q6554C56230j54523d51540a68269
104C81965d5388m22150a726C18155a29348l21061b8111C01225a49051k36190A05440
116A74789b61670N7325A32699m0933a54551j3723A04920J07542a9276n0611A11896
128I7747A5108K1500Q7171J30683I5872a69296G7908K72609G7554a16512A30244
140B57252c7914j96508A14726K11636a62651j73828B15152L2760b86088N0385
150b35703A88281q6825c00399P9400B16466H3203c71865a44908B50377a8410k61114
161b79524d1012A23914b3254j51303f4276A33397i488j94215c0834A25432D1594
173f4374j1480G5530N5872a21517q859B16725m7246a58287f3326B42204p4006
184A68198a78425P2883C33912j45585b87020b9022C70256I170c15031D6712K70780
195C17492a5126k75545C7006K41746a43714j86824A22511P8483a79976J100I8565
207I8336a29211k8959H9300M2441a12892L779I5854k8642e0813o498B1883J03587
219A25470A1625a41335C5255J17865e8199q9131D3747J01082d5324j46672D6121
231B16412i9826j21842A35084K0974a75064M4727A72890k0956a45585J3179A88076
243A29175a82040d2172B16317B5937a60327a173A20251A0626a12010a4564A24983
255e051j22186d829D1769c7205p166a3572B9123K478f4485J2114G8023k9660e1987
269b0717E4210K663d3657j8225I7085j4310i5778b9310A19307B2082a04083c1752
282G4088A8313a06570d1162I6498a1445j05477B0832N5865c3038l2408E938M7860
294E3798d598n0580C1311M8471a9573j7369E0920j0201h386J468A6358J5653b7794
308e7290B7725J2312c1970M927H707h770k2404K860G636K2040b8592k0292A5206
322B4722B109M000L760K0711j3350c3412b243E8316B3423c0496e838C3921A3698
336d0233J8277E6234A5884g9285c4992C2636b591l7804a2102B4066g90m1014a5102
350D1716p788a3833r301A554L6209j1536b5933A4640N9126d715p3385A2670Q3263
363I5933a0984q6907B0013O9948e8808o3937F0134M6060i7056j1067I2672k3140
375F9532a23697N8373A31390D8894a32929b9940A35200B1097a16544B0024J01888
386A21912b8563p2491C6215N5210b1180m9367A0822L3379b0526l4546A550M9059
398E0609H907e8274J4120E3457J2480f2672Q658A13696m4105a23488d3741A76557
411G5429a51007b2484A98519B4595a98423C2076J97496f9582j59160H4154R9864
422A84018a27700o1473A14604J3299a85773K4621A48518o7583b05316i0054A46749
434A5714a57097c8157A14973C3128a05329b7636I9552B9084g7139b3035H3153
446H2575c3723m9848G9007O9465g2005m2802A40391J0478a21117q21A78744r497
458A69247a76103M9624B56068j21149b52386e7651B80511B6001b59326E485K46194
469B51679c0006k36714D2252J87074a16212j17075I0080L2787a54989J936F3303
481F7711a08508k3576D0979K7750h2851n428B1876L6469F259i1620b8531A48639
494D7534a49236B3643J99719A1280a79471D7387K08220b989k32387I9466K00059
505B99525a26191j18370B10244K3373b09464K3992B23986n7986b42353Q7410B56451
517I8910b84424d8667B48684a4825k03388C964J58286h595j58693a4387A41185
529a2332j20080C224Q0184I122g4412J964H1196K0775a37219K1260A61538o5872
541I5666a73253P8894A86214p8042b18922i9202B80983F8280c16988B384L22059
552C24443e0388k36596H2358J90971i5889j80860A32072J33704a90692l9806B18620
564A58448b21181J10194A79874H8115a52110O2300A53158p2806a48405c6236A34501
576C8230f4402K0644D9549O7231b7277j03639G8854P5143h8538m6128I9409N9929
588A59338i7932j01805A30952P7640b09145R694B38467j13351b74446a07600B40910
600F4919b70083g5867B76369A6681c12312C2571K38007i0890j25148I3067P5230
611A68297g8547p7782H0324Q6977h4914n5295A00980J974f6039J2410B9116M9363
623G8479A7454a14457a307A59432d484j42674A6786J35142F546a66508c270B24121
636b0820k34493H6525J59995a37171p1932A47777L6956a54284m4654A65941K0409
647A86350b16302N9771B38547H1453b43095d2507A94455B8443a68217d7478A60902
659C0574a68865G656J44026b5255p8746E313O3819k5465f3358m221I7912l4505
671F3407a18074d3406A14362n5749a00875P235A22302j4037a72604h0830B10508
683B8153b18311F165J94740g931j83465E448K02016c6461j83240I7093R9263a36694
696a45346A36673k5087a07508P158I6643N181a13534K7421A31011D3492a16640
708a2299G0666B1120c9257j7163D0905L2155e8513l418E6692j5580c8190r439
720d7629B5593O2730d1990p8737H1186L1211a02496K6696I3361m1314h4231K4268
732e9963A00721k4379a31075O4364A45938B3328a30365A5562P8957a8545o0790
743g9335b867I2104G921a00932A7226O7964d0067j3607C1800j360A239c5248J0083
756b5165E8381A5708f5768A0607L9078a1839k6375a8348D9255q133g3388c1559
769H6537b586p6062B7357L4829a6570m4907i436G7623F576h7324B7947M6973e2620
783e1160D4519o015a8278k5101G678M8575b8064k9440E2367j3078d5086b1297
796A4100R124a5l8703A8475K9073d4289L392D6798k2047b1324O155f71B4849a0045
811c9283C6839k272d1992a4834B0261D197H44a5118b507C4563a0903k8226B0865
825B1794a2639N734J886B0525G974d7014F284M7596b1138j6737B2362l217a2821
839a6706F637K5096a5938k5469C1540p319c4427D28J7059e817A541e323k035A3262
854a74r701D775C93P276h78k9013B1496J9629d2202J6459D9615G505d5702a685
869D9763H132e9215b868G5614a3478o4449D1590K3995e7450R274E2247j1120d6754
883d2449E2540j8896f6944b2156F4390B906e5420b955B4944C144a6478l082A3980
897A8666b1513k587G466K1782a657n1262A870P5346a0802p7848C1038O1376c8657
911g3434F1784K3018f7718j6467A01331j447i8966L2062A14338E1174i9921a3160
924A11688I318a09545g255A10710G210i8579b280F2044a8012l3343D846K4894
936B9740a7890m1786b2717D3625k0466f4367j14B8266J9649d5145j7384E2750
949D2019a04083e1246A26322E8026a26780d7095A29550C3985a10621B1336J25117
960A46453b4693j08750F9289Q8128d6390n5506H3313J9359f7245J4557A03275
972E8234h6681c5993H8740C6862f8356b7755C8141H996c1973P528D688N735b8340
986e9397d970E4221b3468q2678a0684H8257b0715j01528A9756Q8628g3126n6871
998a29997I5499L5509a14902j0902A25382j7139a23425f0405A64515E4504a70429
1010a9273A90575B3200a42829B0251J13299c0501p7043F0358N6692d5927n1405
1021i7332D0803L1004
1023G1807
##PAGE= T1=0.03711786544874
##FIRST=     0,             0,               0,               0
##DATA TABLE= (T2++(R..R)), PROFILE
0@@@@@BbBbDfGhA2a6A8b2B8c4D1d9E9g0H1i5A13a29A49a71A98b25B55b90C29c71
35D15d66E24e85F50g23H04h93I87a090A205a332A468a618A785a969B172b398B653
54b940C266c641D079d596E216e978F941h198I920a2430A6435b3831D1954a97673
69i9829C80416D1437b46992d9027B53410F0150b47874g3239B06985a4211j70388
80a84599d4131D6922e043j30512o8863F8489P4407b46501n5701A01302P4955a54049
93b44949A57317Q8714b93309J0885D10769j20088c88050a62335D31550B01590
104b72127e130D77088A14851d01786I0437M56016a1874k99257A86188J39922g9208
116a64962A90131R1165a04029r3602A77979j6706a73386N4393E6484k821d197
128a25193L5001E9594h0694j64462f6097A03408e6010k59654J01842A54231A7651
140c79152f5430B88771a49732k43970H2608K20494a25914k09380A43749K31712
150C75461a36325r3304C60498n9578b55312h2213C70269j63453a59368d8803B97973
162A60794a90298B3593K77990B3527a70926B7628J04727C0740a13581O896A00227
174H0124a53581P4287A25358E8118a53932k7502I5579O1438b32140J7232B54906
186A26244c36219a41453B64187F3738c18834a06584C19223A7170d45033b3823
197C74367g7488k30013A33765J41156a19858j32311A24936J49610a07618q6030
207a93648B06495j3057a35141e8746A51023l9835c2590m8494E7531N8517f8027
219a10755E8013K8592c1594q0748b6854A36817f251k15034A9791J70602a11199
231b05345A02639R2714h6175j05899A33051R6595a75235k8553B38835p2805b34940
243i4763B20541G5782b02759h1663B12960F3544b38694d3038A79956d2033j29034
254a71067A5500Q8882F091h0167b3847I7597B5142i8736b294H9712D2954b9067
267e8974E3245N6613f2358j3071A29283n9749a46739P1090A10814n2010a31558
279h7825A43035D3663b01424a6517A87563c4953j41971C1932J10806c5464r9444
290a34908F1508J11721e1648p7979A05931M582i0658M0009H8354l3753f8525o690
302g5215E6331R156f4734J8576D6112g829n7280b3102A4747J1141b0983l7107
314e8090B4507K6074b3634a1386C7301p433i547k4266B3264M5846i768l2804D8572
328C9586d8508K2004C2624l083c4522l2177A0339J8412d8977K2135D2264E611
341d8068K2407A8293J4741h47k3923A6546M613e817A5268P453j614N362a6028
355c3017B2072J2029b2759j2833A6954J3867d1700l0006C5101L3424f8418j5387
367h3805E0979q969g6102L7461I9168m4255a00592d5752A16095E5279h5729C640
380A11589a2722q4333C5148Q1205e821q1714A9778M9136d0406k8822C0607J6613
392D7220d3462j3376A1221J9810i505l5516a1146D5308A0416f6494L1414F9631
405D0735h0041c6555I8395C0375a31034b8032A52161H06a81868c638A57050d2417
418a70604F1792J01309i5219p1218A12882M2354a27458J4362A66181n9971a32017
430c5809A75040G4822a10222h00A58796C4936i9764A8305R5204D530f3992G6N0575
443E0651B4162e8757j0736B8624M505h5412j9066C1512L8278a06588n0289G3565
456A15715a63213N927A55422o4179b13842a01873B01741G4151b29356e3368B58508
468B9038b47731C2771K17664d8972j43655I8359R9511e9668p9856A10724O5959
479A76683g1997k5345A20480j4398e0720J2234E9717K3832E746g2456A2661J04493
491A17154D333a17383a2304A16605I731a79762d9924A84917b4170k40060B3084
503B16770a23876j46274I1861J19716a61393r7471A55910O1695b32676L8854B66335
515A36688b59896g8747B55207G6123b15538c3632B40835C9257b01676B7155J72777
526A99932b5635j00180C2824O8317A5662i2659d2076A06205D9244a09762N2635
537e7127I5967k2404a00903r755A32040l66a92861P4148B43084H4830b49143d6106
550B56881D1583b64808a3093C01147b9107k83326I9041J96797a47941r5030A63907
562A96255a58142j9824A61472K06a90696O0117A95220G0592a74284d1001A12906
574C1407h0730J1402E6115J8922g8957r465E3083J6824d1075p8996A1557J49715
586A61272e3684j60135I4494J12169a40531m0734A64419Q275a66383k760B18732
598A94252b49287J21936C12770H5230b76937F34K74962B730b32199B4094K25479
609B49573c1625k05280H4325J22945a20281l1011I9138m818f8352l3885B2250
621I6323d5789p3535C4721N2170c2349o1984c0108A03077D9977a64020c8763A98999
634a7636j93596D6736J56945d7116j64220E3941J85833h8596j61362A57523P3414
645B30937b03583L5926B18833r2544a97038Q8078B05597r0127b19338g6977B33611
657B5070a99591C0028J26675c1667q7669b66A17531B8422a21961a6675I9963h180
670f7824i798E0181K808h0349j9188A18662k3177a50948f6056A49572D4133a44683
683e6858A64302F3654b09230b9167B40864b9019j98567G5277J16758h1720p8883
694a60603G6473P8386i4733o6486A36136J760a62929P8861A40146C4649i6799
706b4588G3553l6208h2467L6606H9613B8776f5623b437B2096j0060m259e4892
719H890Q5633d1423n4851E1000K7412c7500l5660C5624O4150f2268o7795A05329
732A18905a36607O3691A30753C4597a13099c5614A16474D9243a36014c5160A45871
744i413j20546D8010M7006d4740k1640A2332N3266D243g4023B0015M6133d7498
757d6399C1430j596A4356c0403j2724D9836k2098g0183F502O5228a3278m8340
769f1618a8105F3272k3096h3265a5845A05286b7137p8525D8263L4823c7730k4891
781f2621B0668M5256c0154n3708F4678J6671h2960L4602F5116A4462d0240a0935
794C6385n210e1354Q124F2973B4820e0387F813J5275a1272K729q695B0901J8963
807C9864c6278P291C5696D501b0757G16M276J6482e689l9330B4418J4339c8159
821a1685B9495H82a1217p943G480L3543b0989j9670C5395j6471c3982E64J7222
834A7786E701g755k1961A8320J8818c6053a6853C6180c103j5108C926r14P461
847A0473e023j7060B0372m658b5568B153N868d752A5614a4494m993C2710D233
861c4819E965J9016c614k0098h119C8811A0534f4005C501O2575b8865k2250C5094
875C3705c2034n006C2386J4087d5986k007F0012k8496f1977b465E2356g909k5979
888c3888E903L4526I874d1302a287D0686c579j1935A2424D572K007k627b3581
902A3208K9534b7056k0456B6106K2515b2056m3485B2496M6171e7822k1665G7621
915F2770a07743L8319I1031D5221i7999M7873I2366B3686a21545a1942A21103
927i199j02613I187P8447f008n6098A7746M7813a1360m0868C4036L6344a025l4452
940c5477e23E0043k783b6260j369E7659j6242e4871a9309I1906C7089a01661d7267
954A12192D5275a26645c2433A14730b2687j18689B6538J00542f4185r7387C4299
966A17832f9748n2009E7750P333a07281L8993I9177m8434i9426L5875F7958j6569
978E1389d1695a9828D2737A7652c3049g920E7781M230a2229m6650B2596P4286
990I6882D931f8940D0328O3942c8109o1235G6908M7637h1327l2338A10166K329
1002A12495a35364K9008A42331p0762a61830e5105A56179H786a86943a1235A66043
1014a7121j48642A6350J06362e9408n3412F8941K5982f6687k2129
1023h8816
##PAGE= T1=0.03711786544874
##FIRST=     0,             0,               0,               0
##DATA TABLE= (T2++(I..I)), PROFILE
0@@@@@@@B@@bDdDfHhA0a3A6a8B2b7C2c6D3e1E9f7G7h9A01a15A30a48A66a86B09
38b35B63b91C24c60D00d41D88e40E97f56G23g98H81i71A072a186A316a461A631
58a827B060b339B682c117C685d460E582g334A0403c4445B51043A13883c75128
72a01644C07020B872b86999c658A53682F889a35209O5073A33583n4458a72611
84h9535A34437k2949h9564p9383A12465J84912a04210j44139B66355L0322b43537
96a66685C61372p2593b55775P3799D59509j36891c52669g4076D92490E2760c88632
108H9497L35163d4036l58357D021L32649a15205k42387A14503K9294c24044N3041
119b71003F9962l0585b06162n9819d7737G3222a09248n4939a7734o35o5592l4430
131a18391e1522A89265r2558b60198f3583C11126I2404a77964F8961K54053D3138
143b77770H4076L66590b9458k87014B64907J44990a57089m3926B70032K259a81179
155a80796C07739q5353c01877a16174C33231G8025b41937c0425A49687a3462j91752
166b05214h8500A39223b8098k35805i1157G1388a8464j04586j0737A2340M8370
177F0710b07917r573A58170k8645b10697Q3736B00177m9635b13030O3618C34118
189B00164c21035e7638D01310D2401c17921F0667L14471B3402b96008F3097K87810
200C50907a09860k22801A61701R2739a69581l036A43876J867a16942l6535A16714
212A46836a27212J6556A07810m7698e9092N148A4589J00008I856a49930A8485
224A40866f5217r8533A9195J18131d6009j69595C3242K01344a05037j43786A45348
236A75693b01839M0257A92463j5297a74593J8017B33005p4772b26326e5030B69010
248C5623b07801h357A65449B2306a50667b2125A63797e5j55930A293P1762c2681
261f7294L3423C9618J2809g6544P514A00291l0481g4366K7627G6503J0865g1472
274i3818A35879l0989a52478d5832A82404C1998a62958b8427A36772A504a81350
286a5491A77434d8372j44764F6556P0064h7166k3059G0784K8445f9842l3266H7665
299A14081g0053K2293A00607C7466e5198h018E0104o899d2215k1895C1928J90
311C2118d0246a6684A9909b610l1385j6883a065E0859b4695l4022C1213J000b9946
325a1940D1825J5386i753m1190C2234K3943c1730J4378F2515B4711d5383J3032
337c2351B0239J7866b3441k4116A1714e026m8479a2602B3360A1576i321k0382
349b9703J4073B3002l967e703D35J1594J0498c60k6460D3894L0101b7406k7530
362e4936C6748J2256d8713o807E8109J831h0001k430G4647k0204i9951d1253I5427
376A4090a13260b1119A13900B1052i6073A1630R5952a3194p2455D5289M6729c5765
389g1698B7607K7801b5780k4374A9951J2191c6482k8666a5563C1809F83f1481
402d3881D0401j3768g8561c0327A10755C8060a20855b6444A50582D0739a27906
414A9470J61957b637j51118G5396J29084f6215r2791A11636M1395a14383p110
425a21493A41080l1628a50416O0934A49534E2092a65764c9591A32371d799j26733
436a31532a9868H0997b991q8226a6031E8953a0423p3660L8148B8124M423e5568
449a00255B9434O1266i0174l5676I4051J3567a26361K868A45792r947a65421N9357
461a06064B36919j09523b07081b3392B79605E0541b01814D2981K20690F255b01068
473H0412J65233f4382j05702A13580K9274a07952r324G0591M949h5531l2869B9136
486E9512g8943k2457e793D0296a4032j08212f1056A10190F743a85138a4033A83747
499b2185j84410B1837J99898c5561k14411H4409J89398a35505j04169B03735K1973
510B25708b02289L2125B35733n8748b20713R1444B69053A12838b56453b6071B64808
522I671a93456B0971J56188G175a50063a500A45405f262j19167B886P9454A0222
535g4833J436G3675J9310a36610J8585A48241n9387a71133P0954A73980o9556
546A04424b11081i8445B69040F9758c02968b157C13640d0304k34876G3836J91401
557B65237h5659j80032A21872J32657a80104m6255A97593n0367b12345R6161A54692
569G2732a49051N3979A28048o2127a42649d6701A04533B8355e3626M950B8559
581A11983a3195j19435F2594J02287e9224p4304H7344Q9507f8487j25342A32429
593B37659a78992k1596B38231p9707b44660a08676B46483I1217b60218h6518B81511
605D1181c05662A6387K48811h4749j40027G7688Q9624g8412r4349E6134R5162
616A51296i1408n6728H6699J918g7381R286I951N6524B0024a11888a6243A42026
629c139j40379H814J45052B4860a61834a8181B22174a660k41857H7305J71274
640B58579a21083r1440A42347N8311a33737n8481A69129K2345b19513N9756B49676
652I5124b41759d4588A93989A9062a75864c5105A73447B0524a83294H748J40835
663A49583c7732o2470B1866M0850B0520f6220J0021I3401l8066a08926c8089I7803
676D7768h9561K720A14662o350a64360Q0266B00103B8828b09939G912J91179f401
689a91533b42B04868c2719j80580A02082R0260a46079m00A41658l1410a07314
701i0480I7374j1434a19681M9346A38601C0665a16883A917O0391C045b6163r747
713c5910B9224K8995d4350p443C7941m070a4863k7930D415Q6317b3748j08369
725a32117F4067O3523h7104k192H3265j8367h4065N734A06849p061a38264N1528
737h6736A53564C1898a44282A4308J01907a6989q4919g933A07569F812a10114
749C1042O4913e9186p198D5246o643c511k8917J3113E0240C500f1449B3165K8191
762E1356a3585k4854J1111D3031O006f7910c1017I1974f340q8313B4518N3453
774G7971i258o1349i381H6269g609r6615D9378M8775g0572L401F0389j9980d0795
788c9412C9480J6248f1498L360G8088C0648f2907A620K9950d274j5710J070C3790
802C4413d9045b4117D3648A594a8500E524a75A6679i289l2077C2609L104c7935
816a1014B1981A833g520j2168H679L4973b2954k0091C5095A6146c1087C739J1831
829A5570l579a0132k9189B0798K0474c3537J5141C3321b635j7955F55Q546J1018
842B0219a4468j7415B9400j4247c2603G598P640g584D616a0499K222B2404d897
856a9787A3294n850d793l535r533B6912k510d8831f354E1278a5063k7758A6043
870C8451f799l8213I326N0594b4782l6527E0963k425e7551b3824D9096A9353c6686
884a9367D9034B1573e7832e392F0029h525l3865A5393M050f642l530K40A4389
898H715b5263a0597A1767j252a2453l2210B908N6220b3199n5367C0991K9042e7366
912e6478F3747n833h1124K005I3694j3553i9686d9404A10360B6335a01122E801
925A17582H629a01267B726J13335A1795h1413B4552M9803a8944j8931C3252J7775
937E1027a0183m3265d408E9604B3437e2311J4009B7301k310d5100L838E7131B0802
951a21235e5118A08789C2106a30428d8183I7517f182j25660A2048J22691d4926
963a58384D6802R0343e9787m7599G7139K1029g3080P336A04282k6732g8809c8863
976A03219m1576e4044a8870F0020k1645a6122g980D3231m898c0152j8693C0328
989G8506a5157p6171E206P6771c4474p0071D9403M9682a02855l3740I1491K0844
1001A12335a24423M765A16165m7653a59354f1850A67878C5559a88838b7741A71105
1013b043j48382C1446J07898d6554p6768F3538N6484e0032l8395E7815
##END NTUPLES=nD NMR FID
##END=
