##TITLE=13C zgdc30 BBO
##JCAMPDX= 6.0         $$ Bruker NMR JCAMP-DX V2.0
##DATA TYPE= NMR SPECTRUM
##DATA CLASS= XYDATA
##ORIGIN= Bruker BioSpin GmbH
##OWNER= NMR_mess
##LONG DATE= 2016/12/02 13:29:25+0000
$$ 1.90.2.4 TopSpin 3.6.0
$$ 2021-05-17 11:05:14.194 +0200  nes@nmr-nesnote2
$$ Compression mode = diff/dup
##.OBSERVE FREQUENCY= 150.93474743895
##.OBSERVE NUCLEUS= ^13C
##.ACQUISITION MODE= SIMULTANEOUS (DQD)
##.ACQUISITION SCHEME= undefined
##.AVERAGES= 28
##.DIGITISER RES= 21
##SPECTROMETER/DATA SYSTEM= spect
##.PULSE SEQUENCE= zgdc30
##.SOLVENT NAME= DMSO
##.SHIFT REFERENCE= INTERNAL, DMSO, 1, 193.6013
##AUDIT TRAIL= $$ (NUMBER, WHEN, WHO, WHERE, PROCESS, VERSION, WHAT)
$$ ##TITLE= Audit trail, TopSpin 3.6.0
$$ ##JCAMPDX= 5.01
$$ ##ORIGIN= Bruker BioSpin GmbH
$$ ##OWNER= nes
$$ $$ C:\Bruker\TopSpin3.6.0\data\luc\nmr/Displayer_2216-51-5_kombi/2/pdata/1/auditp.txt
$$ ##AUDIT TRAIL=  $$ (NUMBER, WHEN, WHO, WHERE, PROCESS, VERSION, WHAT)
(   1,<2016-12-02 14:32:25.500 +0100>,<NMR_mess>,<av600.nmr.uni-koeln.de>,<go>,<TOPSPIN 2.1>,
      <created by zg
	started at 2016-12-02 14:28:15.092 +0100,
	POWCHK disabled, PULCHK disabled,
       terminated by command 'halt'
       configuration hash MD5:
       B8 5B 0F 6D 72 6E CD E8 2C BF 54 C4 C6 7B 61 10
       data hash MD5: 256K
       1C 03 F9 2D 60 B9 E7 C9 EB 09 3E 93 31 BA ED 8A>)
(   2,<2021-05-17 11:00:42.232 +0200>,<nes>,<nmr-nesnote2>,<proc1d>,<TopSpin 3.6.0>,
      <Start of raw data processing
       efp LB = 2 FT_mod = 6 PKNL = 1 PHC0 = 3.631109 PHC1 = -62.86203 SI = 64K 
       data hash MD5: 64K
       4A F6 A2 10 07 7B 0D ED 5D F3 CD 8D 40 B1 93 09>)
(   3,<2021-05-17 11:00:43.896 +0200>,<nes>,<nmr-nesnote2>,<proc1d>,<TopSpin 3.6.0>,
      <abs n ABSG = 5 
       data hash MD5: 64K
       5E 54 55 C2 C6 6C 1B B8 87 5C 29 63 59 E8 1E 08>)
$$ ##END=
$$ 
$$ $$ hash MD5
$$ $$ 65 3A 59 6E CB 6A AF 48 DA B1 33 0D 29 36 E9 8A
##$RELAX= 
##$BRUKER FILE EXP=cpdprg2
$$ ;$OWNER=Bruker
$$ 1 pcpd*3:180
$$   pcpd*4:0
$$   pcpd*2:180
$$   pcpd*3:0
$$   pcpd  :180
$$   pcpd*2:0
$$   pcpd*4:180
$$   pcpd*2:0
$$   pcpd*3:180
$$ 2 pcpd*3:0
$$   pcpd*4:180
$$   pcpd*2:0
$$   pcpd*3:180
$$   pcpd  :0
$$   pcpd*2:180
$$   pcpd*4:0
$$   pcpd*2:180
$$   pcpd*3:0
$$   lo to 2 times 2
$$ 3 pcpd*3:180
$$   pcpd*4:0
$$   pcpd*2:180
$$   pcpd*3:0
$$   pcpd  :180
$$   pcpd*2:0
$$   pcpd*4:180
$$   pcpd*2:0
$$   pcpd*3:180
$$   jump to 1
##$RELAX= 
##$BRUKER FILE EXP=format.temp
$$ EDIT_PAR COMMAND FILE
$$ 
$$ DI_MODE         LONG
$$ ED_ENTRY        ACQU
$$ ORDER           FILE
$$ 
$$ 
$$ HEADER		"F2 - Acquisition Parameters"
$$ T_NAME		Date_
$$ 		TYPE	R64
$$ 		CLASS	ACQU
$$ 		SUBRANGE 0.0 50000000
$$ 		REL	"Date_=itodate(DATE)"
$$ 		INV_REL	"DATE=datetoi(Date_,DATE)"
$$ 		FORMAT	"%14.0f"
$$ 		TEXT	" "
$$ END
$$ T_NAME		Time
$$ 		TYPE	R32
$$ 		CLASS	ACQU
$$ 		SUBRANGE 0.0 1000000
$$ 		REL	"Time=itotime(DATE)"
$$ 		INV_REL	"DATE=timetoi(Time,DATE)"
$$ 		FORMAT	"%14.2f"
$$ 		TEXT	" "
$$ END
$$ NAME		INSTRUM
$$ 		TEXT	" "
$$ END
$$ NAME		PROBHD
$$ 		FORMAT	"%14.14s"
$$ 		TEXT	" "
$$ END
$$ NAME		PULPROG
$$ 		TEXT	" "
$$ END
$$ NAME		TD
$$ 		TEXT	" "
$$ END
$$ NAME		SOLVENT
$$ 		TEXT	" "
$$ END
$$ NAME		NS
$$ 		TEXT	" "
$$ END
$$ NAME		DS
$$ 		TEXT	" "
$$ END
$$ T_NAME		SWH
$$ 		TYPE	R32
$$ 		CLASS	ACQU
$$ 		SUBRANGE 0.0 1e8
$$ 		REL	"SWH=SW*SFO1"
$$ 		INV_REL "SW=SWH/SFO1"
$$ 		UNIT	"Hz"
$$ 		FORMAT	"%14.3f Hz"
$$ 		TEXT	" "
$$ END
$$ T_NAME          FIDRES
$$                 TYPE    R32
$$                 CLASS   ACQU
$$                 SUBRANGE 0.0 100000
$$                 REL     "FIDRES=SW*SFO1/TD"
$$                 INV_REL "TD = nextpow(SW*SFO1/FIDRES)"
$$ 		UNIT	"Hz"
$$ 		FORMAT	"%14.6f Hz"
$$ 		TEXT	" "
$$ END
$$ T_NAME          AQ
$$ 		TYPE	R32
$$ 		CLASS	ACQU
$$ 		SUBRANGE 0.0 1000
$$ 		REL	"AQ=aqcalc(SW,SFO1,TD,DIGTYP)"
$$ 		INV_REL	"TD=tdcalc(SW,SFO1,1.0e6*AQ,DIGTYP)"
$$ 		UNIT	"sec"
$$ 		FORMAT	"%14.7f sec"
$$ 		TEXT	" "
$$ END
$$ NAME		RG
$$ 		TEXT	" "
$$ END
$$ T_NAME          DW
$$ 		TYPE	R32
$$ 		CLASS	ACQU
$$ 		SUBRANGE 0.0 1000000
$$ 		REL	"DW=1/(2*SW*SFO1)"
$$ 		INV_REL	"SW=1000000/(2*(0.005+DW)*SFO1)"
$$ 		UNIT	"usec"
$$ 		FORMAT	"%14.3lf usec"
$$ 		TEXT	" "
$$ END
$$ NAME		DE
$$ 		FORMAT	"%14.2f usec"
$$ 		TEXT	" "
$$ END
$$ NAME		TE
$$ 		FORMAT	"%14.1f K"
$$ 		TEXT	" "
$$ END
$$ T_NAME		D1
$$ 		TYPE	R32
$$ 		CLASS	ACQU
$$ 		SUBRANGE 0.0 1e38
$$ 		REL	"D1=D[1]"
$$ 		INV_REL	"D[1]=D1"
$$ 		UNIT	"sec"
$$ 		FORMAT	"%14.8f sec"
$$ 		TEXT	" "
$$ END
$$ T_NAME		D11
$$ 		TYPE	R32
$$ 		CLASS	ACQU
$$ 		SUBRANGE 0.0 1e38
$$ 		REL	"D11=D[11]"
$$ 		INV_REL	"D[11]=D11"
$$ 		UNIT	"sec"
$$ 		FORMAT	"%14.8f sec"
$$ 		TEXT	" "
$$ END
$$ NAME		TD0
$$ 		TEXT	" "
$$ END
$$ HEADER		"======== CHANNEL f1 ========"
$$ NAME		NUC1
$$ 		NONEDIT
$$ 		TEXT	" "
$$ END
$$ T_NAME		P1
$$ 		TYPE	R32
$$ 		CLASS	ACQU
$$ 		SUBRANGE 0.0 1.0e10
$$ 		REL	"P1=P[1]"
$$ 		INV_REL	"P[1]=P1"
$$ 		UNIT	"usec"
$$ 		FORMAT	"%14.2f usec"
$$ 		TEXT	" "
$$ END
$$ T_NAME		PL1
$$ 		TYPE	R32
$$ 		CLASS	ACQU
$$ 		SUBRANGE -6.0 1e38
$$ 		REL	"PL1=PL[1]"
$$ 		INV_REL	"PL[1]=PL1"
$$ 		UNIT	"dB"
$$ 		FORMAT	"%14.2f dB"
$$ 		TEXT	" "
$$ END
$$ T_NAME		PL1W
$$ 		TYPE	R32
$$ 		CLASS	ACQU
$$ 		SUBRANGE -6.0 1e38
$$ 		REL	"PL1W=329*pow(10.0,(-6-PL[1])/10.0)"
$$ 		INV_REL	"PL[1]=-6-4.3425*log(PL1W/329)"
$$ 		UNIT	"no"
$$ 		FORMAT	"%14.8f W"
$$ 		TEXT	" "
$$ END
$$ NAME		SFO1
$$ 		FORMAT	"%14.7f MHz"
$$ 		TEXT	" "
$$ END
$$ HEADER		"======== CHANNEL f2 ========"
$$ NAME		CPDPRG2
$$ 		TEXT	" "
$$ END
$$ NAME		NUC2
$$ 		NONEDIT
$$ 		TEXT	" "
$$ END
$$ T_NAME		PCPD2
$$ 		TYPE	R32
$$ 		CLASS	ACQU
$$ 		SUBRANGE 0 1e38
$$ 		REL	"PCPD2=PCPD[2]"
$$ 		INV_REL	"PCPD[2]=PCPD2"
$$ 		UNIT	"usec"
$$ 		FORMAT	"%14.2f usec"
$$ 		TEXT	" "
$$ END
$$ T_NAME		PL2
$$ 		TYPE	R32
$$ 		CLASS	ACQU
$$ 		SUBRANGE -6.0 1e38
$$ 		REL	"PL2=PL[2]"
$$ 		INV_REL	"PL[2]=PL2"
$$ 		UNIT	"dB"
$$ 		FORMAT	"%14.2f dB"
$$ 		TEXT	" "
$$ END
$$ T_NAME		PL12
$$ 		TYPE	R32
$$ 		CLASS	ACQU
$$ 		SUBRANGE -6.0 1e38
$$ 		REL	"PL12=PL[12]"
$$ 		INV_REL	"PL[12]=PL12"
$$ 		UNIT	"dB"
$$ 		FORMAT	"%14.2f dB"
$$ 		TEXT	" "
$$ END
$$ T_NAME		PL2W
$$ 		TYPE	R32
$$ 		CLASS	ACQU
$$ 		SUBRANGE -6.0 1e38
$$ 		REL	"PL2W=47*pow(10.0,(-6-PL[2])/10.0)"
$$ 		INV_REL	"PL[2]=-6-4.3425*log(PL2W/47)"
$$ 		UNIT	"no"
$$ 		FORMAT	"%14.8f W"
$$ 		TEXT	" "
$$ END
$$ T_NAME		PL12W
$$ 		TYPE	R32
$$ 		CLASS	ACQU
$$ 		SUBRANGE -6.0 1e38
$$ 		REL	"PL12W=47*pow(10.0,(-6-PL[12])/10.0)"
$$ 		INV_REL	"PL[12]=-6-4.3425*log(PL12W/47)"
$$ 		UNIT	"no"
$$ 		FORMAT	"%14.8f W"
$$ 		TEXT	" "
$$ END
$$ NAME		SFO2
$$ 		FORMAT	"%14.7f MHz"
$$ 		TEXT	" "
$$ END
##$RELAX= 
##$BRUKER FILE EXP=scon2
$$ ##TITLE= Parameter file, TOPSPIN		Version 2.1
$$ ##JCAMPDX= 5.0
$$ ##DATATYPE= Parameter Values
$$ ##NPOINTS= 1	$$ modification sequence number
$$ ##ORIGIN= Bruker BioSpin GmbH
$$ ##OWNER= NMR_mess
$$ $$ 2016-12-02 14:28:14.977 +0100  NMR_mess@av600.nmr.uni-koeln.de
$$ $$ /opt/topspin/data/NMR_mess/nmr/Prakt_Gr1_MethChLA/2/scon2
$$ $$ process /opt/topspin/prog/mod/go
$$ ##$BLKTR= (0..15)
3 3 3 3 3 3 3 3 3 3 3 3 3 3 3 3
$$ ##$DE1= 4.5
$$ ##$DEADC= 0.5
$$ ##$DEPA= 4.5
$$ ##$DERX= 1.5
$$ ##$FILCOR= 0
$$ ##END=
##$RELAX= 
##$BRUKER FILE EXP=spnam2
$$ ##TITLE= /u/exp/stan/nmr/lists/wave.dexam/Gaus1.1000
$$ ##JCAMP-DX= 5.00 Bruker JCAMP library
$$ ##DATA TYPE= Shape Data
$$ ##ORIGIN= Bruker Analytik GmbH
$$ ##OWNER= <demo>
$$ ##DATE= 01/05/08
$$ ##TIME= 12:57:44
$$ ##$SHAPE_PARAMETERS= Type: Gauss ; Truncation Level: 1 
$$ ##MINX= 1.000000e+00
$$ ##MAXX= 9.999954e+01
$$ ##MINY= 0.000000e+00
$$ ##MAXY= 0.000000e+00
$$ ##$SHAPE_EXMODE= Universal
$$ ##$SHAPE_TOTROT= 9.000000e+01
$$ ##$SHAPE_BWFAC= 2.122000e+00
$$ ##$SHAPE_INTEGFAC= 4.115776e-01
$$ ##$SHAPE_MODE= 0
$$ ##NPOINTS= 1000
$$ ##XYPOINTS= (XY..XY)
$$ 1.000000e+00, 0.000000e+00
$$ 1.018591e+00, 0.000000e+00
$$ 1.037490e+00, 0.000000e+00
$$ 1.056700e+00, 0.000000e+00
$$ 1.076227e+00, 0.000000e+00
$$ 1.096073e+00, 0.000000e+00
$$ 1.116245e+00, 0.000000e+00
$$ 1.136746e+00, 0.000000e+00
$$ 1.157580e+00, 0.000000e+00
$$ 1.178753e+00, 0.000000e+00
$$ 1.200269e+00, 0.000000e+00
$$ 1.222132e+00, 0.000000e+00
$$ 1.244348e+00, 0.000000e+00
$$ 1.266921e+00, 0.000000e+00
$$ 1.289855e+00, 0.000000e+00
$$ 1.313157e+00, 0.000000e+00
$$ 1.336830e+00, 0.000000e+00
$$ 1.360879e+00, 0.000000e+00
$$ 1.385310e+00, 0.000000e+00
$$ 1.410127e+00, 0.000000e+00
$$ 1.435337e+00, 0.000000e+00
$$ 1.460942e+00, 0.000000e+00
$$ 1.486950e+00, 0.000000e+00
$$ 1.513365e+00, 0.000000e+00
$$ 1.540192e+00, 0.000000e+00
$$ 1.567437e+00, 0.000000e+00
$$ 1.595105e+00, 0.000000e+00
$$ 1.623202e+00, 0.000000e+00
$$ 1.651732e+00, 0.000000e+00
$$ 1.680702e+00, 0.000000e+00
$$ 1.710117e+00, 0.000000e+00
$$ 1.739982e+00, 0.000000e+00
$$ 1.770304e+00, 0.000000e+00
$$ 1.801088e+00, 0.000000e+00
$$ 1.832339e+00, 0.000000e+00
$$ 1.864063e+00, 0.000000e+00
$$ 1.896267e+00, 0.000000e+00
$$ 1.928956e+00, 0.000000e+00
$$ 1.962136e+00, 0.000000e+00
$$ 1.995813e+00, 0.000000e+00
$$ 2.029994e+00, 0.000000e+00
$$ 2.064683e+00, 0.000000e+00
$$ 2.099888e+00, 0.000000e+00
$$ 2.135614e+00, 0.000000e+00
$$ 2.171868e+00, 0.000000e+00
$$ 2.208655e+00, 0.000000e+00
$$ 2.245983e+00, 0.000000e+00
$$ 2.283857e+00, 0.000000e+00
$$ 2.322285e+00, 0.000000e+00
$$ 2.361271e+00, 0.000000e+00
$$ 2.400824e+00, 0.000000e+00
$$ 2.440949e+00, 0.000000e+00
$$ 2.481653e+00, 0.000000e+00
$$ 2.522943e+00, 0.000000e+00
$$ 2.564825e+00, 0.000000e+00
$$ 2.607306e+00, 0.000000e+00
$$ 2.650393e+00, 0.000000e+00
$$ 2.694092e+00, 0.000000e+00
$$ 2.738411e+00, 0.000000e+00
$$ 2.783356e+00, 0.000000e+00
$$ 2.828934e+00, 0.000000e+00
$$ 2.875152e+00, 0.000000e+00
$$ 2.922018e+00, 0.000000e+00
$$ 2.969538e+00, 0.000000e+00
$$ 3.017720e+00, 0.000000e+00
$$ 3.066570e+00, 0.000000e+00
$$ 3.116095e+00, 0.000000e+00
$$ 3.166304e+00, 0.000000e+00
$$ 3.217203e+00, 0.000000e+00
$$ 3.268799e+00, 0.000000e+00
$$ 3.321101e+00, 0.000000e+00
$$ 3.374114e+00, 0.000000e+00
$$ 3.427848e+00, 0.000000e+00
$$ 3.482308e+00, 0.000000e+00
$$ 3.537503e+00, 0.000000e+00
$$ 3.593441e+00, 0.000000e+00
$$ 3.650128e+00, 0.000000e+00
$$ 3.707572e+00, 0.000000e+00
$$ 3.765782e+00, 0.000000e+00
$$ 3.824764e+00, 0.000000e+00
$$ 3.884526e+00, 0.000000e+00
$$ 3.945077e+00, 0.000000e+00
$$ 4.006424e+00, 0.000000e+00
$$ 4.068575e+00, 0.000000e+00
$$ 4.131537e+00, 0.000000e+00
$$ 4.195318e+00, 0.000000e+00
$$ 4.259927e+00, 0.000000e+00
$$ 4.325371e+00, 0.000000e+00
$$ 4.391659e+00, 0.000000e+00
$$ 4.458798e+00, 0.000000e+00
$$ 4.526796e+00, 0.000000e+00
$$ 4.595662e+00, 0.000000e+00
$$ 4.665402e+00, 0.000000e+00
$$ 4.736027e+00, 0.000000e+00
$$ 4.807543e+00, 0.000000e+00
$$ 4.879959e+00, 0.000000e+00
$$ 4.953282e+00, 0.000000e+00
$$ 5.027522e+00, 0.000000e+00
$$ 5.102687e+00, 0.000000e+00
$$ 5.178783e+00, 0.000000e+00
$$ 5.255821e+00, 0.000000e+00
$$ 5.333808e+00, 0.000000e+00
$$ 5.412752e+00, 0.000000e+00
$$ 5.492661e+00, 0.000000e+00
$$ 5.573545e+00, 0.000000e+00
$$ 5.655411e+00, 0.000000e+00
$$ 5.738268e+00, 0.000000e+00
$$ 5.822123e+00, 0.000000e+00
$$ 5.906986e+00, 0.000000e+00
$$ 5.992865e+00, 0.000000e+00
$$ 6.079768e+00, 0.000000e+00
$$ 6.167703e+00, 0.000000e+00
$$ 6.256679e+00, 0.000000e+00
$$ 6.346705e+00, 0.000000e+00
$$ 6.437788e+00, 0.000000e+00
$$ 6.529937e+00, 0.000000e+00
$$ 6.623161e+00, 0.000000e+00
$$ 6.717468e+00, 0.000000e+00
$$ 6.812866e+00, 0.000000e+00
$$ 6.909363e+00, 0.000000e+00
$$ 7.006969e+00, 0.000000e+00
$$ 7.105692e+00, 0.000000e+00
$$ 7.205539e+00, 0.000000e+00
$$ 7.306520e+00, 0.000000e+00
$$ 7.408642e+00, 0.000000e+00
$$ 7.511914e+00, 0.000000e+00
$$ 7.616345e+00, 0.000000e+00
$$ 7.721943e+00, 0.000000e+00
$$ 7.828715e+00, 0.000000e+00
$$ 7.936671e+00, 0.000000e+00
$$ 8.045819e+00, 0.000000e+00
$$ 8.156166e+00, 0.000000e+00
$$ 8.267722e+00, 0.000000e+00
$$ 8.380494e+00, 0.000000e+00
$$ 8.494491e+00, 0.000000e+00
$$ 8.609720e+00, 0.000000e+00
$$ 8.726191e+00, 0.000000e+00
$$ 8.843911e+00, 0.000000e+00
$$ 8.962887e+00, 0.000000e+00
$$ 9.083130e+00, 0.000000e+00
$$ 9.204645e+00, 0.000000e+00
$$ 9.327442e+00, 0.000000e+00
$$ 9.451528e+00, 0.000000e+00
$$ 9.576911e+00, 0.000000e+00
$$ 9.703600e+00, 0.000000e+00
$$ 9.831601e+00, 0.000000e+00
$$ 9.960923e+00, 0.000000e+00
$$ 1.009157e+01, 0.000000e+00
$$ 1.022356e+01, 0.000000e+00
$$ 1.035689e+01, 0.000000e+00
$$ 1.049157e+01, 0.000000e+00
$$ 1.062762e+01, 0.000000e+00
$$ 1.076502e+01, 0.000000e+00
$$ 1.090381e+01, 0.000000e+00
$$ 1.104397e+01, 0.000000e+00
$$ 1.118552e+01, 0.000000e+00
$$ 1.132847e+01, 0.000000e+00
$$ 1.147282e+01, 0.000000e+00
$$ 1.161859e+01, 0.000000e+00
$$ 1.176576e+01, 0.000000e+00
$$ 1.191437e+01, 0.000000e+00
$$ 1.206441e+01, 0.000000e+00
$$ 1.221588e+01, 0.000000e+00
$$ 1.236880e+01, 0.000000e+00
$$ 1.252317e+01, 0.000000e+00
$$ 1.267900e+01, 0.000000e+00
$$ 1.283630e+01, 0.000000e+00
$$ 1.299506e+01, 0.000000e+00
$$ 1.315531e+01, 0.000000e+00
$$ 1.331704e+01, 0.000000e+00
$$ 1.348026e+01, 0.000000e+00
$$ 1.364498e+01, 0.000000e+00
$$ 1.381120e+01, 0.000000e+00
$$ 1.397893e+01, 0.000000e+00
$$ 1.414817e+01, 0.000000e+00
$$ 1.431893e+01, 0.000000e+00
$$ 1.449122e+01, 0.000000e+00
$$ 1.466505e+01, 0.000000e+00
$$ 1.484040e+01, 0.000000e+00
$$ 1.501731e+01, 0.000000e+00
$$ 1.519575e+01, 0.000000e+00
$$ 1.537576e+01, 0.000000e+00
$$ 1.555732e+01, 0.000000e+00
$$ 1.574044e+01, 0.000000e+00
$$ 1.592513e+01, 0.000000e+00
$$ 1.611139e+01, 0.000000e+00
$$ 1.629923e+01, 0.000000e+00
$$ 1.648865e+01, 0.000000e+00
$$ 1.667966e+01, 0.000000e+00
$$ 1.687225e+01, 0.000000e+00
$$ 1.706644e+01, 0.000000e+00
$$ 1.726223e+01, 0.000000e+00
$$ 1.745962e+01, 0.000000e+00
$$ 1.765862e+01, 0.000000e+00
$$ 1.785922e+01, 0.000000e+00
$$ 1.806143e+01, 0.000000e+00
$$ 1.826527e+01, 0.000000e+00
$$ 1.847071e+01, 0.000000e+00
$$ 1.867779e+01, 0.000000e+00
$$ 1.888648e+01, 0.000000e+00
$$ 1.909680e+01, 0.000000e+00
$$ 1.930875e+01, 0.000000e+00
$$ 1.952234e+01, 0.000000e+00
$$ 1.973755e+01, 0.000000e+00
$$ 1.995440e+01, 0.000000e+00
$$ 2.017290e+01, 0.000000e+00
$$ 2.039303e+01, 0.000000e+00
$$ 2.061480e+01, 0.000000e+00
$$ 2.083821e+01, 0.000000e+00
$$ 2.106327e+01, 0.000000e+00
$$ 2.128997e+01, 0.000000e+00
$$ 2.151832e+01, 0.000000e+00
$$ 2.174831e+01, 0.000000e+00
$$ 2.197995e+01, 0.000000e+00
$$ 2.221324e+01, 0.000000e+00
$$ 2.244817e+01, 0.000000e+00
$$ 2.268476e+01, 0.000000e+00
$$ 2.292299e+01, 0.000000e+00
$$ 2.316286e+01, 0.000000e+00
$$ 2.340438e+01, 0.000000e+00
$$ 2.364755e+01, 0.000000e+00
$$ 2.389236e+01, 0.000000e+00
$$ 2.413882e+01, 0.000000e+00
$$ 2.438692e+01, 0.000000e+00
$$ 2.463666e+01, 0.000000e+00
$$ 2.488803e+01, 0.000000e+00
$$ 2.514105e+01, 0.000000e+00
$$ 2.539570e+01, 0.000000e+00
$$ 2.565198e+01, 0.000000e+00
$$ 2.590989e+01, 0.000000e+00
$$ 2.616942e+01, 0.000000e+00
$$ 2.643059e+01, 0.000000e+00
$$ 2.669337e+01, 0.000000e+00
$$ 2.695777e+01, 0.000000e+00
$$ 2.722378e+01, 0.000000e+00
$$ 2.749141e+01, 0.000000e+00
$$ 2.776064e+01, 0.000000e+00
$$ 2.803147e+01, 0.000000e+00
$$ 2.830390e+01, 0.000000e+00
$$ 2.857792e+01, 0.000000e+00
$$ 2.885353e+01, 0.000000e+00
$$ 2.913072e+01, 0.000000e+00
$$ 2.940949e+01, 0.000000e+00
$$ 2.968983e+01, 0.000000e+00
$$ 2.997174e+01, 0.000000e+00
$$ 3.025521e+01, 0.000000e+00
$$ 3.054023e+01, 0.000000e+00
$$ 3.082679e+01, 0.000000e+00
$$ 3.111490e+01, 0.000000e+00
$$ 3.140454e+01, 0.000000e+00
$$ 3.169571e+01, 0.000000e+00
$$ 3.198840e+01, 0.000000e+00
$$ 3.228259e+01, 0.000000e+00
$$ 3.257829e+01, 0.000000e+00
$$ 3.287549e+01, 0.000000e+00
$$ 3.317417e+01, 0.000000e+00
$$ 3.347433e+01, 0.000000e+00
$$ 3.377596e+01, 0.000000e+00
$$ 3.407905e+01, 0.000000e+00
$$ 3.438359e+01, 0.000000e+00
$$ 3.468957e+01, 0.000000e+00
$$ 3.499698e+01, 0.000000e+00
$$ 3.530581e+01, 0.000000e+00
$$ 3.561605e+01, 0.000000e+00
$$ 3.592769e+01, 0.000000e+00
$$ 3.624072e+01, 0.000000e+00
$$ 3.655513e+01, 0.000000e+00
$$ 3.687091e+01, 0.000000e+00
$$ 3.718804e+01, 0.000000e+00
$$ 3.750651e+01, 0.000000e+00
$$ 3.782631e+01, 0.000000e+00
$$ 3.814744e+01, 0.000000e+00
$$ 3.846986e+01, 0.000000e+00
$$ 3.879359e+01, 0.000000e+00
$$ 3.911859e+01, 0.000000e+00
$$ 3.944486e+01, 0.000000e+00
$$ 3.977238e+01, 0.000000e+00
$$ 4.010114e+01, 0.000000e+00
$$ 4.043112e+01, 0.000000e+00
$$ 4.076232e+01, 0.000000e+00
$$ 4.109471e+01, 0.000000e+00
$$ 4.142829e+01, 0.000000e+00
$$ 4.176303e+01, 0.000000e+00
$$ 4.209892e+01, 0.000000e+00
$$ 4.243594e+01, 0.000000e+00
$$ 4.277409e+01, 0.000000e+00
$$ 4.311333e+01, 0.000000e+00
$$ 4.345367e+01, 0.000000e+00
$$ 4.379507e+01, 0.000000e+00
$$ 4.413752e+01, 0.000000e+00
$$ 4.448102e+01, 0.000000e+00
$$ 4.482553e+01, 0.000000e+00
$$ 4.517104e+01, 0.000000e+00
$$ 4.551753e+01, 0.000000e+00
$$ 4.586499e+01, 0.000000e+00
$$ 4.621339e+01, 0.000000e+00
$$ 4.656273e+01, 0.000000e+00
$$ 4.691297e+01, 0.000000e+00
$$ 4.726410e+01, 0.000000e+00
$$ 4.761610e+01, 0.000000e+00
$$ 4.796895e+01, 0.000000e+00
$$ 4.832264e+01, 0.000000e+00
$$ 4.867713e+01, 0.000000e+00
$$ 4.903241e+01, 0.000000e+00
$$ 4.938847e+01, 0.000000e+00
$$ 4.974527e+01, 0.000000e+00
$$ 5.010280e+01, 0.000000e+00
$$ 5.046104e+01, 0.000000e+00
$$ 5.081997e+01, 0.000000e+00
$$ 5.117955e+01, 0.000000e+00
$$ 5.153978e+01, 0.000000e+00
$$ 5.190063e+01, 0.000000e+00
$$ 5.226208e+01, 0.000000e+00
$$ 5.262410e+01, 0.000000e+00
$$ 5.298667e+01, 0.000000e+00
$$ 5.334977e+01, 0.000000e+00
$$ 5.371337e+01, 0.000000e+00
$$ 5.407746e+01, 0.000000e+00
$$ 5.444201e+01, 0.000000e+00
$$ 5.480699e+01, 0.000000e+00
$$ 5.517238e+01, 0.000000e+00
$$ 5.553815e+01, 0.000000e+00
$$ 5.590429e+01, 0.000000e+00
$$ 5.627076e+01, 0.000000e+00
$$ 5.663755e+01, 0.000000e+00
$$ 5.700462e+01, 0.000000e+00
$$ 5.737195e+01, 0.000000e+00
$$ 5.773952e+01, 0.000000e+00
$$ 5.810730e+01, 0.000000e+00
$$ 5.847526e+01, 0.000000e+00
$$ 5.884338e+01, 0.000000e+00
$$ 5.921163e+01, 0.000000e+00
$$ 5.957999e+01, 0.000000e+00
$$ 5.994843e+01, 0.000000e+00
$$ 6.031691e+01, 0.000000e+00
$$ 6.068542e+01, 0.000000e+00
$$ 6.105393e+01, 0.000000e+00
$$ 6.142241e+01, 0.000000e+00
$$ 6.179083e+01, 0.000000e+00
$$ 6.215917e+01, 0.000000e+00
$$ 6.252740e+01, 0.000000e+00
$$ 6.289548e+01, 0.000000e+00
$$ 6.326340e+01, 0.000000e+00
$$ 6.363112e+01, 0.000000e+00
$$ 6.399861e+01, 0.000000e+00
$$ 6.436585e+01, 0.000000e+00
$$ 6.473281e+01, 0.000000e+00
$$ 6.509945e+01, 0.000000e+00
$$ 6.546576e+01, 0.000000e+00
$$ 6.583170e+01, 0.000000e+00
$$ 6.619724e+01, 0.000000e+00
$$ 6.656235e+01, 0.000000e+00
$$ 6.692700e+01, 0.000000e+00
$$ 6.729117e+01, 0.000000e+00
$$ 6.765482e+01, 0.000000e+00
$$ 6.801793e+01, 0.000000e+00
$$ 6.838046e+01, 0.000000e+00
$$ 6.874239e+01, 0.000000e+00
$$ 6.910368e+01, 0.000000e+00
$$ 6.946430e+01, 0.000000e+00
$$ 6.982423e+01, 0.000000e+00
$$ 7.018344e+01, 0.000000e+00
$$ 7.054188e+01, 0.000000e+00
$$ 7.089954e+01, 0.000000e+00
$$ 7.125639e+01, 0.000000e+00
$$ 7.161238e+01, 0.000000e+00
$$ 7.196750e+01, 0.000000e+00
$$ 7.232171e+01, 0.000000e+00
$$ 7.267498e+01, 0.000000e+00
$$ 7.302728e+01, 0.000000e+00
$$ 7.337857e+01, 0.000000e+00
$$ 7.372884e+01, 0.000000e+00
$$ 7.407804e+01, 0.000000e+00
$$ 7.442615e+01, 0.000000e+00
$$ 7.477314e+01, 0.000000e+00
$$ 7.511897e+01, 0.000000e+00
$$ 7.546361e+01, 0.000000e+00
$$ 7.580704e+01, 0.000000e+00
$$ 7.614922e+01, 0.000000e+00
$$ 7.649012e+01, 0.000000e+00
$$ 7.682971e+01, 0.000000e+00
$$ 7.716795e+01, 0.000000e+00
$$ 7.750483e+01, 0.000000e+00
$$ 7.784030e+01, 0.000000e+00
$$ 7.817434e+01, 0.000000e+00
$$ 7.850692e+01, 0.000000e+00
$$ 7.883800e+01, 0.000000e+00
$$ 7.916755e+01, 0.000000e+00
$$ 7.949554e+01, 0.000000e+00
$$ 7.982195e+01, 0.000000e+00
$$ 8.014674e+01, 0.000000e+00
$$ 8.046988e+01, 0.000000e+00
$$ 8.079134e+01, 0.000000e+00
$$ 8.111109e+01, 0.000000e+00
$$ 8.142910e+01, 0.000000e+00
$$ 8.174534e+01, 0.000000e+00
$$ 8.205978e+01, 0.000000e+00
$$ 8.237239e+01, 0.000000e+00
$$ 8.268313e+01, 0.000000e+00
$$ 8.299199e+01, 0.000000e+00
$$ 8.329892e+01, 0.000000e+00
$$ 8.360390e+01, 0.000000e+00
$$ 8.390690e+01, 0.000000e+00
$$ 8.420789e+01, 0.000000e+00
$$ 8.450684e+01, 0.000000e+00
$$ 8.480372e+01, 0.000000e+00
$$ 8.509850e+01, 0.000000e+00
$$ 8.539116e+01, 0.000000e+00
$$ 8.568165e+01, 0.000000e+00
$$ 8.596997e+01, 0.000000e+00
$$ 8.625607e+01, 0.000000e+00
$$ 8.653992e+01, 0.000000e+00
$$ 8.682151e+01, 0.000000e+00
$$ 8.710079e+01, 0.000000e+00
$$ 8.737775e+01, 0.000000e+00
$$ 8.765235e+01, 0.000000e+00
$$ 8.792457e+01, 0.000000e+00
$$ 8.819439e+01, 0.000000e+00
$$ 8.846176e+01, 0.000000e+00
$$ 8.872667e+01, 0.000000e+00
$$ 8.898908e+01, 0.000000e+00
$$ 8.924898e+01, 0.000000e+00
$$ 8.950633e+01, 0.000000e+00
$$ 8.976111e+01, 0.000000e+00
$$ 9.001329e+01, 0.000000e+00
$$ 9.026285e+01, 0.000000e+00
$$ 9.050976e+01, 0.000000e+00
$$ 9.075400e+01, 0.000000e+00
$$ 9.099553e+01, 0.000000e+00
$$ 9.123434e+01, 0.000000e+00
$$ 9.147040e+01, 0.000000e+00
$$ 9.170369e+01, 0.000000e+00
$$ 9.193418e+01, 0.000000e+00
$$ 9.216184e+01, 0.000000e+00
$$ 9.238666e+01, 0.000000e+00
$$ 9.260860e+01, 0.000000e+00
$$ 9.282766e+01, 0.000000e+00
$$ 9.304379e+01, 0.000000e+00
$$ 9.325699e+01, 0.000000e+00
$$ 9.346722e+01, 0.000000e+00
$$ 9.367448e+01, 0.000000e+00
$$ 9.387872e+01, 0.000000e+00
$$ 9.407994e+01, 0.000000e+00
$$ 9.427811e+01, 0.000000e+00
$$ 9.447320e+01, 0.000000e+00
$$ 9.466521e+01, 0.000000e+00
$$ 9.485411e+01, 0.000000e+00
$$ 9.503987e+01, 0.000000e+00
$$ 9.522248e+01, 0.000000e+00
$$ 9.540192e+01, 0.000000e+00
$$ 9.557818e+01, 0.000000e+00
$$ 9.575122e+01, 0.000000e+00
$$ 9.592103e+01, 0.000000e+00
$$ 9.608760e+01, 0.000000e+00
$$ 9.625091e+01, 0.000000e+00
$$ 9.641093e+01, 0.000000e+00
$$ 9.656765e+01, 0.000000e+00
$$ 9.672106e+01, 0.000000e+00
$$ 9.687114e+01, 0.000000e+00
$$ 9.701787e+01, 0.000000e+00
$$ 9.716123e+01, 0.000000e+00
$$ 9.730121e+01, 0.000000e+00
$$ 9.743780e+01, 0.000000e+00
$$ 9.757098e+01, 0.000000e+00
$$ 9.770073e+01, 0.000000e+00
$$ 9.782704e+01, 0.000000e+00
$$ 9.794990e+01, 0.000000e+00
$$ 9.806930e+01, 0.000000e+00
$$ 9.818522e+01, 0.000000e+00
$$ 9.829764e+01, 0.000000e+00
$$ 9.840656e+01, 0.000000e+00
$$ 9.851197e+01, 0.000000e+00
$$ 9.861384e+01, 0.000000e+00
$$ 9.871218e+01, 0.000000e+00
$$ 9.880697e+01, 0.000000e+00
$$ 9.889820e+01, 0.000000e+00
$$ 9.898586e+01, 0.000000e+00
$$ 9.906994e+01, 0.000000e+00
$$ 9.915043e+01, 0.000000e+00
$$ 9.922732e+01, 0.000000e+00
$$ 9.930061e+01, 0.000000e+00
$$ 9.937028e+01, 0.000000e+00
$$ 9.943633e+01, 0.000000e+00
$$ 9.949875e+01, 0.000000e+00
$$ 9.955754e+01, 0.000000e+00
$$ 9.961268e+01, 0.000000e+00
$$ 9.966418e+01, 0.000000e+00
$$ 9.971202e+01, 0.000000e+00
$$ 9.975620e+01, 0.000000e+00
$$ 9.979671e+01, 0.000000e+00
$$ 9.983356e+01, 0.000000e+00
$$ 9.986673e+01, 0.000000e+00
$$ 9.989623e+01, 0.000000e+00
$$ 9.992205e+01, 0.000000e+00
$$ 9.994418e+01, 0.000000e+00
$$ 9.996263e+01, 0.000000e+00
$$ 9.997739e+01, 0.000000e+00
$$ 9.998846e+01, 0.000000e+00
$$ 9.999585e+01, 0.000000e+00
$$ 9.999954e+01, 0.000000e+00
$$ 9.999954e+01, 0.000000e+00
$$ 9.999585e+01, 0.000000e+00
$$ 9.998846e+01, 0.000000e+00
$$ 9.997739e+01, 0.000000e+00
$$ 9.996263e+01, 0.000000e+00
$$ 9.994418e+01, 0.000000e+00
$$ 9.992205e+01, 0.000000e+00
$$ 9.989623e+01, 0.000000e+00
$$ 9.986673e+01, 0.000000e+00
$$ 9.983356e+01, 0.000000e+00
$$ 9.979671e+01, 0.000000e+00
$$ 9.975620e+01, 0.000000e+00
$$ 9.971202e+01, 0.000000e+00
$$ 9.966418e+01, 0.000000e+00
$$ 9.961268e+01, 0.000000e+00
$$ 9.955754e+01, 0.000000e+00
$$ 9.949875e+01, 0.000000e+00
$$ 9.943633e+01, 0.000000e+00
$$ 9.937028e+01, 0.000000e+00
$$ 9.930061e+01, 0.000000e+00
$$ 9.922732e+01, 0.000000e+00
$$ 9.915043e+01, 0.000000e+00
$$ 9.906994e+01, 0.000000e+00
$$ 9.898586e+01, 0.000000e+00
$$ 9.889820e+01, 0.000000e+00
$$ 9.880697e+01, 0.000000e+00
$$ 9.871218e+01, 0.000000e+00
$$ 9.861384e+01, 0.000000e+00
$$ 9.851197e+01, 0.000000e+00
$$ 9.840656e+01, 0.000000e+00
$$ 9.829764e+01, 0.000000e+00
$$ 9.818522e+01, 0.000000e+00
$$ 9.806930e+01, 0.000000e+00
$$ 9.794990e+01, 0.000000e+00
$$ 9.782704e+01, 0.000000e+00
$$ 9.770073e+01, 0.000000e+00
$$ 9.757098e+01, 0.000000e+00
$$ 9.743780e+01, 0.000000e+00
$$ 9.730121e+01, 0.000000e+00
$$ 9.716123e+01, 0.000000e+00
$$ 9.701787e+01, 0.000000e+00
$$ 9.687114e+01, 0.000000e+00
$$ 9.672106e+01, 0.000000e+00
$$ 9.656765e+01, 0.000000e+00
$$ 9.641093e+01, 0.000000e+00
$$ 9.625091e+01, 0.000000e+00
$$ 9.608760e+01, 0.000000e+00
$$ 9.592103e+01, 0.000000e+00
$$ 9.575122e+01, 0.000000e+00
$$ 9.557818e+01, 0.000000e+00
$$ 9.540192e+01, 0.000000e+00
$$ 9.522248e+01, 0.000000e+00
$$ 9.503987e+01, 0.000000e+00
$$ 9.485411e+01, 0.000000e+00
$$ 9.466521e+01, 0.000000e+00
$$ 9.447320e+01, 0.000000e+00
$$ 9.427811e+01, 0.000000e+00
$$ 9.407994e+01, 0.000000e+00
$$ 9.387872e+01, 0.000000e+00
$$ 9.367448e+01, 0.000000e+00
$$ 9.346722e+01, 0.000000e+00
$$ 9.325699e+01, 0.000000e+00
$$ 9.304379e+01, 0.000000e+00
$$ 9.282766e+01, 0.000000e+00
$$ 9.260860e+01, 0.000000e+00
$$ 9.238666e+01, 0.000000e+00
$$ 9.216184e+01, 0.000000e+00
$$ 9.193418e+01, 0.000000e+00
$$ 9.170369e+01, 0.000000e+00
$$ 9.147040e+01, 0.000000e+00
$$ 9.123434e+01, 0.000000e+00
$$ 9.099553e+01, 0.000000e+00
$$ 9.075400e+01, 0.000000e+00
$$ 9.050976e+01, 0.000000e+00
$$ 9.026285e+01, 0.000000e+00
$$ 9.001329e+01, 0.000000e+00
$$ 8.976111e+01, 0.000000e+00
$$ 8.950633e+01, 0.000000e+00
$$ 8.924898e+01, 0.000000e+00
$$ 8.898908e+01, 0.000000e+00
$$ 8.872667e+01, 0.000000e+00
$$ 8.846176e+01, 0.000000e+00
$$ 8.819439e+01, 0.000000e+00
$$ 8.792457e+01, 0.000000e+00
$$ 8.765235e+01, 0.000000e+00
$$ 8.737775e+01, 0.000000e+00
$$ 8.710079e+01, 0.000000e+00
$$ 8.682151e+01, 0.000000e+00
$$ 8.653992e+01, 0.000000e+00
$$ 8.625607e+01, 0.000000e+00
$$ 8.596997e+01, 0.000000e+00
$$ 8.568165e+01, 0.000000e+00
$$ 8.539116e+01, 0.000000e+00
$$ 8.509850e+01, 0.000000e+00
$$ 8.480372e+01, 0.000000e+00
$$ 8.450684e+01, 0.000000e+00
$$ 8.420789e+01, 0.000000e+00
$$ 8.390690e+01, 0.000000e+00
$$ 8.360390e+01, 0.000000e+00
$$ 8.329892e+01, 0.000000e+00
$$ 8.299199e+01, 0.000000e+00
$$ 8.268313e+01, 0.000000e+00
$$ 8.237239e+01, 0.000000e+00
$$ 8.205978e+01, 0.000000e+00
$$ 8.174534e+01, 0.000000e+00
$$ 8.142910e+01, 0.000000e+00
$$ 8.111109e+01, 0.000000e+00
$$ 8.079134e+01, 0.000000e+00
$$ 8.046988e+01, 0.000000e+00
$$ 8.014674e+01, 0.000000e+00
$$ 7.982195e+01, 0.000000e+00
$$ 7.949554e+01, 0.000000e+00
$$ 7.916755e+01, 0.000000e+00
$$ 7.883800e+01, 0.000000e+00
$$ 7.850692e+01, 0.000000e+00
$$ 7.817434e+01, 0.000000e+00
$$ 7.784030e+01, 0.000000e+00
$$ 7.750483e+01, 0.000000e+00
$$ 7.716795e+01, 0.000000e+00
$$ 7.682971e+01, 0.000000e+00
$$ 7.649012e+01, 0.000000e+00
$$ 7.614922e+01, 0.000000e+00
$$ 7.580704e+01, 0.000000e+00
$$ 7.546361e+01, 0.000000e+00
$$ 7.511897e+01, 0.000000e+00
$$ 7.477314e+01, 0.000000e+00
$$ 7.442615e+01, 0.000000e+00
$$ 7.407804e+01, 0.000000e+00
$$ 7.372884e+01, 0.000000e+00
$$ 7.337857e+01, 0.000000e+00
$$ 7.302728e+01, 0.000000e+00
$$ 7.267498e+01, 0.000000e+00
$$ 7.232171e+01, 0.000000e+00
$$ 7.196750e+01, 0.000000e+00
$$ 7.161238e+01, 0.000000e+00
$$ 7.125639e+01, 0.000000e+00
$$ 7.089954e+01, 0.000000e+00
$$ 7.054188e+01, 0.000000e+00
$$ 7.018344e+01, 0.000000e+00
$$ 6.982423e+01, 0.000000e+00
$$ 6.946430e+01, 0.000000e+00
$$ 6.910368e+01, 0.000000e+00
$$ 6.874239e+01, 0.000000e+00
$$ 6.838046e+01, 0.000000e+00
$$ 6.801793e+01, 0.000000e+00
$$ 6.765482e+01, 0.000000e+00
$$ 6.729117e+01, 0.000000e+00
$$ 6.692700e+01, 0.000000e+00
$$ 6.656235e+01, 0.000000e+00
$$ 6.619724e+01, 0.000000e+00
$$ 6.583170e+01, 0.000000e+00
$$ 6.546576e+01, 0.000000e+00
$$ 6.509945e+01, 0.000000e+00
$$ 6.473281e+01, 0.000000e+00
$$ 6.436585e+01, 0.000000e+00
$$ 6.399861e+01, 0.000000e+00
$$ 6.363112e+01, 0.000000e+00
$$ 6.326340e+01, 0.000000e+00
$$ 6.289548e+01, 0.000000e+00
$$ 6.252740e+01, 0.000000e+00
$$ 6.215917e+01, 0.000000e+00
$$ 6.179083e+01, 0.000000e+00
$$ 6.142241e+01, 0.000000e+00
$$ 6.105393e+01, 0.000000e+00
$$ 6.068542e+01, 0.000000e+00
$$ 6.031691e+01, 0.000000e+00
$$ 5.994843e+01, 0.000000e+00
$$ 5.957999e+01, 0.000000e+00
$$ 5.921163e+01, 0.000000e+00
$$ 5.884338e+01, 0.000000e+00
$$ 5.847526e+01, 0.000000e+00
$$ 5.810730e+01, 0.000000e+00
$$ 5.773952e+01, 0.000000e+00
$$ 5.737195e+01, 0.000000e+00
$$ 5.700462e+01, 0.000000e+00
$$ 5.663755e+01, 0.000000e+00
$$ 5.627076e+01, 0.000000e+00
$$ 5.590429e+01, 0.000000e+00
$$ 5.553815e+01, 0.000000e+00
$$ 5.517238e+01, 0.000000e+00
$$ 5.480699e+01, 0.000000e+00
$$ 5.444201e+01, 0.000000e+00
$$ 5.407746e+01, 0.000000e+00
$$ 5.371337e+01, 0.000000e+00
$$ 5.334977e+01, 0.000000e+00
$$ 5.298667e+01, 0.000000e+00
$$ 5.262410e+01, 0.000000e+00
$$ 5.226208e+01, 0.000000e+00
$$ 5.190063e+01, 0.000000e+00
$$ 5.153978e+01, 0.000000e+00
$$ 5.117955e+01, 0.000000e+00
$$ 5.081997e+01, 0.000000e+00
$$ 5.046104e+01, 0.000000e+00
$$ 5.010280e+01, 0.000000e+00
$$ 4.974527e+01, 0.000000e+00
$$ 4.938847e+01, 0.000000e+00
$$ 4.903241e+01, 0.000000e+00
$$ 4.867713e+01, 0.000000e+00
$$ 4.832264e+01, 0.000000e+00
$$ 4.796895e+01, 0.000000e+00
$$ 4.761610e+01, 0.000000e+00
$$ 4.726410e+01, 0.000000e+00
$$ 4.691297e+01, 0.000000e+00
$$ 4.656273e+01, 0.000000e+00
$$ 4.621339e+01, 0.000000e+00
$$ 4.586499e+01, 0.000000e+00
$$ 4.551753e+01, 0.000000e+00
$$ 4.517104e+01, 0.000000e+00
$$ 4.482553e+01, 0.000000e+00
$$ 4.448102e+01, 0.000000e+00
$$ 4.413752e+01, 0.000000e+00
$$ 4.379507e+01, 0.000000e+00
$$ 4.345367e+01, 0.000000e+00
$$ 4.311333e+01, 0.000000e+00
$$ 4.277409e+01, 0.000000e+00
$$ 4.243594e+01, 0.000000e+00
$$ 4.209892e+01, 0.000000e+00
$$ 4.176303e+01, 0.000000e+00
$$ 4.142829e+01, 0.000000e+00
$$ 4.109471e+01, 0.000000e+00
$$ 4.076232e+01, 0.000000e+00
$$ 4.043112e+01, 0.000000e+00
$$ 4.010114e+01, 0.000000e+00
$$ 3.977238e+01, 0.000000e+00
$$ 3.944486e+01, 0.000000e+00
$$ 3.911859e+01, 0.000000e+00
$$ 3.879359e+01, 0.000000e+00
$$ 3.846986e+01, 0.000000e+00
$$ 3.814744e+01, 0.000000e+00
$$ 3.782631e+01, 0.000000e+00
$$ 3.750651e+01, 0.000000e+00
$$ 3.718804e+01, 0.000000e+00
$$ 3.687091e+01, 0.000000e+00
$$ 3.655513e+01, 0.000000e+00
$$ 3.624072e+01, 0.000000e+00
$$ 3.592769e+01, 0.000000e+00
$$ 3.561605e+01, 0.000000e+00
$$ 3.530581e+01, 0.000000e+00
$$ 3.499698e+01, 0.000000e+00
$$ 3.468957e+01, 0.000000e+00
$$ 3.438359e+01, 0.000000e+00
$$ 3.407905e+01, 0.000000e+00
$$ 3.377596e+01, 0.000000e+00
$$ 3.347433e+01, 0.000000e+00
$$ 3.317417e+01, 0.000000e+00
$$ 3.287549e+01, 0.000000e+00
$$ 3.257829e+01, 0.000000e+00
$$ 3.228259e+01, 0.000000e+00
$$ 3.198840e+01, 0.000000e+00
$$ 3.169571e+01, 0.000000e+00
$$ 3.140454e+01, 0.000000e+00
$$ 3.111490e+01, 0.000000e+00
$$ 3.082679e+01, 0.000000e+00
$$ 3.054023e+01, 0.000000e+00
$$ 3.025521e+01, 0.000000e+00
$$ 2.997174e+01, 0.000000e+00
$$ 2.968983e+01, 0.000000e+00
$$ 2.940949e+01, 0.000000e+00
$$ 2.913072e+01, 0.000000e+00
$$ 2.885353e+01, 0.000000e+00
$$ 2.857792e+01, 0.000000e+00
$$ 2.830390e+01, 0.000000e+00
$$ 2.803147e+01, 0.000000e+00
$$ 2.776064e+01, 0.000000e+00
$$ 2.749141e+01, 0.000000e+00
$$ 2.722378e+01, 0.000000e+00
$$ 2.695777e+01, 0.000000e+00
$$ 2.669337e+01, 0.000000e+00
$$ 2.643059e+01, 0.000000e+00
$$ 2.616942e+01, 0.000000e+00
$$ 2.590989e+01, 0.000000e+00
$$ 2.565198e+01, 0.000000e+00
$$ 2.539570e+01, 0.000000e+00
$$ 2.514105e+01, 0.000000e+00
$$ 2.488803e+01, 0.000000e+00
$$ 2.463666e+01, 0.000000e+00
$$ 2.438692e+01, 0.000000e+00
$$ 2.413882e+01, 0.000000e+00
$$ 2.389236e+01, 0.000000e+00
$$ 2.364755e+01, 0.000000e+00
$$ 2.340438e+01, 0.000000e+00
$$ 2.316286e+01, 0.000000e+00
$$ 2.292299e+01, 0.000000e+00
$$ 2.268476e+01, 0.000000e+00
$$ 2.244817e+01, 0.000000e+00
$$ 2.221324e+01, 0.000000e+00
$$ 2.197995e+01, 0.000000e+00
$$ 2.174831e+01, 0.000000e+00
$$ 2.151832e+01, 0.000000e+00
$$ 2.128997e+01, 0.000000e+00
$$ 2.106327e+01, 0.000000e+00
$$ 2.083821e+01, 0.000000e+00
$$ 2.061480e+01, 0.000000e+00
$$ 2.039303e+01, 0.000000e+00
$$ 2.017290e+01, 0.000000e+00
$$ 1.995440e+01, 0.000000e+00
$$ 1.973755e+01, 0.000000e+00
$$ 1.952234e+01, 0.000000e+00
$$ 1.930875e+01, 0.000000e+00
$$ 1.909680e+01, 0.000000e+00
$$ 1.888648e+01, 0.000000e+00
$$ 1.867779e+01, 0.000000e+00
$$ 1.847071e+01, 0.000000e+00
$$ 1.826527e+01, 0.000000e+00
$$ 1.806143e+01, 0.000000e+00
$$ 1.785922e+01, 0.000000e+00
$$ 1.765862e+01, 0.000000e+00
$$ 1.745962e+01, 0.000000e+00
$$ 1.726223e+01, 0.000000e+00
$$ 1.706644e+01, 0.000000e+00
$$ 1.687225e+01, 0.000000e+00
$$ 1.667966e+01, 0.000000e+00
$$ 1.648865e+01, 0.000000e+00
$$ 1.629923e+01, 0.000000e+00
$$ 1.611139e+01, 0.000000e+00
$$ 1.592513e+01, 0.000000e+00
$$ 1.574044e+01, 0.000000e+00
$$ 1.555732e+01, 0.000000e+00
$$ 1.537576e+01, 0.000000e+00
$$ 1.519575e+01, 0.000000e+00
$$ 1.501731e+01, 0.000000e+00
$$ 1.484040e+01, 0.000000e+00
$$ 1.466505e+01, 0.000000e+00
$$ 1.449122e+01, 0.000000e+00
$$ 1.431893e+01, 0.000000e+00
$$ 1.414817e+01, 0.000000e+00
$$ 1.397893e+01, 0.000000e+00
$$ 1.381120e+01, 0.000000e+00
$$ 1.364498e+01, 0.000000e+00
$$ 1.348026e+01, 0.000000e+00
$$ 1.331704e+01, 0.000000e+00
$$ 1.315531e+01, 0.000000e+00
$$ 1.299506e+01, 0.000000e+00
$$ 1.283630e+01, 0.000000e+00
$$ 1.267900e+01, 0.000000e+00
$$ 1.252317e+01, 0.000000e+00
$$ 1.236880e+01, 0.000000e+00
$$ 1.221588e+01, 0.000000e+00
$$ 1.206441e+01, 0.000000e+00
$$ 1.191437e+01, 0.000000e+00
$$ 1.176576e+01, 0.000000e+00
$$ 1.161859e+01, 0.000000e+00
$$ 1.147282e+01, 0.000000e+00
$$ 1.132847e+01, 0.000000e+00
$$ 1.118552e+01, 0.000000e+00
$$ 1.104397e+01, 0.000000e+00
$$ 1.090381e+01, 0.000000e+00
$$ 1.076502e+01, 0.000000e+00
$$ 1.062762e+01, 0.000000e+00
$$ 1.049157e+01, 0.000000e+00
$$ 1.035689e+01, 0.000000e+00
$$ 1.022356e+01, 0.000000e+00
$$ 1.009157e+01, 0.000000e+00
$$ 9.960923e+00, 0.000000e+00
$$ 9.831601e+00, 0.000000e+00
$$ 9.703600e+00, 0.000000e+00
$$ 9.576911e+00, 0.000000e+00
$$ 9.451528e+00, 0.000000e+00
$$ 9.327442e+00, 0.000000e+00
$$ 9.204645e+00, 0.000000e+00
$$ 9.083130e+00, 0.000000e+00
$$ 8.962887e+00, 0.000000e+00
$$ 8.843911e+00, 0.000000e+00
$$ 8.726191e+00, 0.000000e+00
$$ 8.609720e+00, 0.000000e+00
$$ 8.494491e+00, 0.000000e+00
$$ 8.380494e+00, 0.000000e+00
$$ 8.267722e+00, 0.000000e+00
$$ 8.156166e+00, 0.000000e+00
$$ 8.045819e+00, 0.000000e+00
$$ 7.936671e+00, 0.000000e+00
$$ 7.828715e+00, 0.000000e+00
$$ 7.721943e+00, 0.000000e+00
$$ 7.616345e+00, 0.000000e+00
$$ 7.511914e+00, 0.000000e+00
$$ 7.408642e+00, 0.000000e+00
$$ 7.306520e+00, 0.000000e+00
$$ 7.205539e+00, 0.000000e+00
$$ 7.105692e+00, 0.000000e+00
$$ 7.006969e+00, 0.000000e+00
$$ 6.909363e+00, 0.000000e+00
$$ 6.812866e+00, 0.000000e+00
$$ 6.717468e+00, 0.000000e+00
$$ 6.623161e+00, 0.000000e+00
$$ 6.529937e+00, 0.000000e+00
$$ 6.437788e+00, 0.000000e+00
$$ 6.346705e+00, 0.000000e+00
$$ 6.256679e+00, 0.000000e+00
$$ 6.167703e+00, 0.000000e+00
$$ 6.079768e+00, 0.000000e+00
$$ 5.992865e+00, 0.000000e+00
$$ 5.906986e+00, 0.000000e+00
$$ 5.822123e+00, 0.000000e+00
$$ 5.738268e+00, 0.000000e+00
$$ 5.655411e+00, 0.000000e+00
$$ 5.573545e+00, 0.000000e+00
$$ 5.492661e+00, 0.000000e+00
$$ 5.412752e+00, 0.000000e+00
$$ 5.333808e+00, 0.000000e+00
$$ 5.255821e+00, 0.000000e+00
$$ 5.178783e+00, 0.000000e+00
$$ 5.102687e+00, 0.000000e+00
$$ 5.027522e+00, 0.000000e+00
$$ 4.953282e+00, 0.000000e+00
$$ 4.879959e+00, 0.000000e+00
$$ 4.807543e+00, 0.000000e+00
$$ 4.736027e+00, 0.000000e+00
$$ 4.665402e+00, 0.000000e+00
$$ 4.595662e+00, 0.000000e+00
$$ 4.526796e+00, 0.000000e+00
$$ 4.458798e+00, 0.000000e+00
$$ 4.391659e+00, 0.000000e+00
$$ 4.325371e+00, 0.000000e+00
$$ 4.259927e+00, 0.000000e+00
$$ 4.195318e+00, 0.000000e+00
$$ 4.131537e+00, 0.000000e+00
$$ 4.068575e+00, 0.000000e+00
$$ 4.006424e+00, 0.000000e+00
$$ 3.945077e+00, 0.000000e+00
$$ 3.884526e+00, 0.000000e+00
$$ 3.824764e+00, 0.000000e+00
$$ 3.765782e+00, 0.000000e+00
$$ 3.707572e+00, 0.000000e+00
$$ 3.650128e+00, 0.000000e+00
$$ 3.593441e+00, 0.000000e+00
$$ 3.537503e+00, 0.000000e+00
$$ 3.482308e+00, 0.000000e+00
$$ 3.427848e+00, 0.000000e+00
$$ 3.374114e+00, 0.000000e+00
$$ 3.321101e+00, 0.000000e+00
$$ 3.268799e+00, 0.000000e+00
$$ 3.217203e+00, 0.000000e+00
$$ 3.166304e+00, 0.000000e+00
$$ 3.116095e+00, 0.000000e+00
$$ 3.066570e+00, 0.000000e+00
$$ 3.017720e+00, 0.000000e+00
$$ 2.969538e+00, 0.000000e+00
$$ 2.922018e+00, 0.000000e+00
$$ 2.875152e+00, 0.000000e+00
$$ 2.828934e+00, 0.000000e+00
$$ 2.783356e+00, 0.000000e+00
$$ 2.738411e+00, 0.000000e+00
$$ 2.694092e+00, 0.000000e+00
$$ 2.650393e+00, 0.000000e+00
$$ 2.607306e+00, 0.000000e+00
$$ 2.564825e+00, 0.000000e+00
$$ 2.522943e+00, 0.000000e+00
$$ 2.481653e+00, 0.000000e+00
$$ 2.440949e+00, 0.000000e+00
$$ 2.400824e+00, 0.000000e+00
$$ 2.361271e+00, 0.000000e+00
$$ 2.322285e+00, 0.000000e+00
$$ 2.283857e+00, 0.000000e+00
$$ 2.245983e+00, 0.000000e+00
$$ 2.208655e+00, 0.000000e+00
$$ 2.171868e+00, 0.000000e+00
$$ 2.135614e+00, 0.000000e+00
$$ 2.099888e+00, 0.000000e+00
$$ 2.064683e+00, 0.000000e+00
$$ 2.029994e+00, 0.000000e+00
$$ 1.995813e+00, 0.000000e+00
$$ 1.962136e+00, 0.000000e+00
$$ 1.928956e+00, 0.000000e+00
$$ 1.896267e+00, 0.000000e+00
$$ 1.864063e+00, 0.000000e+00
$$ 1.832339e+00, 0.000000e+00
$$ 1.801088e+00, 0.000000e+00
$$ 1.770304e+00, 0.000000e+00
$$ 1.739982e+00, 0.000000e+00
$$ 1.710117e+00, 0.000000e+00
$$ 1.680702e+00, 0.000000e+00
$$ 1.651732e+00, 0.000000e+00
$$ 1.623202e+00, 0.000000e+00
$$ 1.595105e+00, 0.000000e+00
$$ 1.567437e+00, 0.000000e+00
$$ 1.540192e+00, 0.000000e+00
$$ 1.513365e+00, 0.000000e+00
$$ 1.486950e+00, 0.000000e+00
$$ 1.460942e+00, 0.000000e+00
$$ 1.435337e+00, 0.000000e+00
$$ 1.410127e+00, 0.000000e+00
$$ 1.385310e+00, 0.000000e+00
$$ 1.360879e+00, 0.000000e+00
$$ 1.336830e+00, 0.000000e+00
$$ 1.313157e+00, 0.000000e+00
$$ 1.289855e+00, 0.000000e+00
$$ 1.266921e+00, 0.000000e+00
$$ 1.244348e+00, 0.000000e+00
$$ 1.222132e+00, 0.000000e+00
$$ 1.200269e+00, 0.000000e+00
$$ 1.178753e+00, 0.000000e+00
$$ 1.157580e+00, 0.000000e+00
$$ 1.136746e+00, 0.000000e+00
$$ 1.116245e+00, 0.000000e+00
$$ 1.096073e+00, 0.000000e+00
$$ 1.076227e+00, 0.000000e+00
$$ 1.056700e+00, 0.000000e+00
$$ 1.037490e+00, 0.000000e+00
$$ 1.018591e+00, 0.000000e+00
$$ 1.000000e+00, 0.000000e+00
$$ ##END= 
##$RELAX= 
##$BRUKER FILE EXP=pulseprogram
$$ # 1 "/opt/topspin/exp/stan/nmr/lists/pp/zgdc30"
$$ ;zgdc30
$$ ;avance-version (07/04/03)
$$ ;1D sequence with decoupling
$$ ;using 30 degree flip angle
$$ ;
$$ ;$CLASS=HighRes
$$ ;$DIM=1D
$$ ;$TYPE=
$$ ;$SUBTYPE=
$$ ;$COMMENT=
$$ 
$$ 
$$ # 1 "/opt/topspin/exp/stan/nmr/lists/pp/Avance.incl" 1
$$ ;Avance3.incl
$$ ;   for AV III
$$ ;
$$ ;avance-version (07/12/14)
$$ ;
$$ ;$CLASS=HighRes Incl
$$ ;$COMMENT=
$$ 
$$ 
$$ 
$$ 
$$ 
$$ 
$$ 
$$ 
$$ 
$$ 
$$ 
$$ 
$$ 
$$ 
$$ 
$$ 
$$ 
$$ 
$$ 
$$ 
$$ 
$$ 
$$ 
$$ 
$$ 
$$ 
$$ 
$$ 
$$ 
$$ 
$$ 
$$ 
$$ 
$$ 
$$ 
$$ 
$$ 
$$ 
$$ 
$$ 
$$ 
$$ 
$$ 
$$ 
$$ 
$$ 
$$ 
$$ 
$$ 
$$ 
$$ 
$$ 
$$ 
$$ 
$$ 
$$ 
$$ 
$$ 
$$ 
$$ 
$$ 
$$ 
$$ 
$$ 
$$ 
$$ 
$$ 
$$ 
$$ 
$$ 
$$ 
$$ 
$$ 
$$ 
$$ 
$$ 
$$ 
$$ 
$$ 
$$ 
$$ 
$$ 
$$ 
$$ 
$$ 
$$ 
$$ 
$$ 
$$ 
$$ 
$$ 
$$ 
$$ 
$$ 
$$ 
$$ 
$$ 
$$ 
$$ 
$$ 
$$ 
$$ 
$$ 
$$ 
$$ 
$$ 
$$ 
$$ 
$$ 
$$ 
$$ 
$$ 
$$ 
$$ 
$$ 
$$ 
$$ 
$$ 
$$ 
$$ 
$$ 
$$ 
$$ 
$$ 
$$ 
$$ 
$$ 
$$ 
$$ 
$$ 
$$ 
$$ 
$$ 
$$ 
$$ 
$$ 
$$ 
$$ 
$$ 
$$ 
$$ 
$$ 
$$ 
$$ 
$$ 
$$ 
$$ 
$$ 
$$ 
$$ 
$$ 
$$ 
$$ 
$$ 
$$ 
$$ 
$$ 
$$ ;$Id: Avance3.incl,v 1.6.2.2 2007/12/14 16:06:46 ber Exp $
$$ # 13 "/opt/topspin/exp/stan/nmr/lists/pp/zgdc30" 2
$$ 
$$ 
$$ 
$$ "d11=30m"
$$ 
$$ 
$$ "acqt0=-p1*0.66/3.1416"
$$ 
$$ 
$$ # 1 "mc_line 22 file /opt/topspin/exp/stan/nmr/lists/pp/zgdc30 expanding definition part of mc command before ze"
$$ define delay MCWRK
$$ define delay MCREST
$$ "MCWRK = 0.333333*30m"
$$ "MCREST = 30m - 30m"
$$     dccorr
$$ # 22 "/opt/topspin/exp/stan/nmr/lists/pp/zgdc30"
$$ 1 ze
$$ # 1 "mc_line 22 file /opt/topspin/exp/stan/nmr/lists/pp/zgdc30 expanding definition of mc command after ze"
$$ # 23 "/opt/topspin/exp/stan/nmr/lists/pp/zgdc30"
$$   d11 pl12:f2 
$$ # 1 "mc_line 24 file /opt/topspin/exp/stan/nmr/lists/pp/zgdc30 expanding start label for mc command"
$$ 2 MCWRK  * 2 do:f2
$$ LBLF0, MCWRK 
$$   MCREST
$$ # 25 "/opt/topspin/exp/stan/nmr/lists/pp/zgdc30"
$$   d11 cpd2:f2
$$   d1
$$   p1*0.33 ph1
$$   go=2 ph31
$$ # 1 "mc_line 29 file /opt/topspin/exp/stan/nmr/lists/pp/zgdc30 expanding mc command in line"
$$   MCWRK do:f2 wr #0
$$   MCWRK zd 
$$   lo to LBLF0 times td0
$$ 
$$   MCWRK
$$ # 30 "/opt/topspin/exp/stan/nmr/lists/pp/zgdc30"
$$ exit
$$ 
$$ 
$$ ph1=0 2 2 0 1 3 3 1
$$ ph31=0 2 2 0 1 3 3 1
$$ 
$$ 
$$ ;pl1 : f1 channel - power level for pulse (default)
$$ ;pl12: f2 channel - power level for CPD/BB decoupling
$$ ;p1 : f1 channel -  90 degree high power pulse
$$ ;d1 : relaxation delay; 1-5 * T1
$$ ;d11: delay for disk I/O                             [30 msec]
$$ ;NS: 1 * n, total number of scans: NS * TD0
$$ ;cpd2: decoupling according to sequence defined by cpdprg2
$$ ;pcpd2: f2 channel - 90 degree pulse for decoupling sequence
$$ 
$$ 
$$ 
$$ ;$Id: zgdc30,v 1.10 2007/04/11 13:34:31 ber Exp $
##$RELAX= 
##$BRUKER FILE EXP=shimvalues
$$ # Fri Dec  2 14:29:26 2016
$$ #$$PROBEID=34
$$ #$$PROBEINFO=5 mm BBO BB-1H/D Z-GRD Z8478/0071
$$ #$$PICSINFO=Z8478_0071_34.par
$$ #
$$ # Active Shim Gradients
$$ #
$$ Z           		-11534          
$$ Z2          		-1072           
$$ Z3          		6916            
$$ Z4          		-2944           
$$ Z5          		1935            
$$ Z6          		-843            
$$ X           		1219            
$$ XZ          		578             
$$ XZ2         		9238            
$$ XZ3         		633             
$$ XZ4         		1136            
$$ XZ5         		-6350           
$$ Y           		1280            
$$ YZ          		663             
$$ YZ2         		190             
$$ YZ3         		-1621           
$$ YZ4         		-25             
$$ YZ5         		-1120           
$$ XY          		296             
$$ XYZ         		7419            
$$ XYZ2        		2530            
$$ XYZ3        		-1745           
$$ XYZ4        		3130            
$$ XYZ5        		6388            
$$ (X2-Y2)     		-228            
$$ (X2-Y2)Z    		5640            
$$ (X2-Y2)Z2   		-1165           
$$ (X2-Y2)Z3   		4238            
$$ (X2-Y2)Z4   		4996            
$$ (X2-Y2)Z5   		1510            
$$ X3          		795             
$$ X3Z         		2675            
$$ Y3          		235             
$$ Y3Z         		5139            
$$ #
$$ # Lock Parameter
$$ #
$$ LOCKPHASE		95.000  
$$ LOCKPOWER		-30.000 
$$ LOCKGAIN		104.147 
$$ LOCKDC		-75.000 
$$ LOCKSHIFT		2.490   
$$ FIELD		5606.547
$$ LOOPGAIN		5.000   
$$ LOOPTIME		0.250   
$$ LOOPFILTER		200.000 
$$ #
$$ IEEE64_VERSION_CODE 1
$$ #
$$ # Shim currents 
$$ #
$$ SHIM_SETTING [1 ]  -5594.05389136  
$$ SHIM_SETTING [2 ]  -1072.12135855  
$$ SHIM_SETTING [3 ]  6916.36641451   
$$ SHIM_SETTING [4 ]  0.00000000      
$$ SHIM_SETTING [5 ]  -2944.46431505  
$$ SHIM_SETTING [6 ]  1934.88231310   
$$ SHIM_SETTING [7 ]  -843.00000000   
$$ SHIM_SETTING [8 ]  0.00000000      
$$ SHIM_SETTING [9 ]  0.00000000      
$$ SHIM_SETTING [10]  -1880.00000000  
$$ SHIM_SETTING [11]  3470.00000000   
$$ SHIM_SETTING [12]  -4904.00000000  
$$ SHIM_SETTING [13]  5374.00000000   
$$ SHIM_SETTING [14]  0.00000000      
$$ SHIM_SETTING [15]  9975.96044685   
$$ SHIM_SETTING [16]  12083.37020487  
$$ SHIM_SETTING [17]  -7657.15512848  
$$ SHIM_SETTING [18]  -4107.95234555  
$$ SHIM_SETTING [19]  -7156.58111301  
$$ SHIM_SETTING [20]  4443.92556161   
$$ SHIM_SETTING [21]  10221.98930466  
$$ SHIM_SETTING [22]  -8209.01595853  
$$ SHIM_SETTING [23]  -2569.32694094  
$$ SHIM_SETTING [24]  -6172.42909478  
$$ SHIM_SETTING [25]  10819.27443599  
$$ SHIM_SETTING [26]  -3197.59177302  
$$ SHIM_SETTING [27]  0.00000000      
$$ SHIM_SETTING [28]  139.29739577    
$$ SHIM_SETTING [29]  8011.71976637   
$$ SHIM_SETTING [30]  -4590.29123364  
$$ SHIM_SETTING [31]  2870.68983379   
$$ SHIM_SETTING [32]  2522.17929829   
$$ SHIM_SETTING [33]  12187.00862412  
$$ SHIM_SETTING [34]  -3838.32437588  
$$ SHIM_SETTING [35]  3784.90534612   
$$ SHIM_SETTING [36]  -13158.31665388 
$$ SHIM_SETTING [37]  2676.96534695   
$$ SHIM_SETTING [38]  -1619.37607715  
$$ SHIM_SETTING [39]  -506.07728411   
$$ SHIM_SETTING [40]  0.00000000      
##$RELAX= 
##$BRUKER FILE EXP=uxnmr.par
$$ ##TITLE= Parameter file, TOPSPIN		Version 2.1
$$ ##JCAMPDX= 5.0
$$ ##DATATYPE= Parameter Values
$$ ##NPOINTS= 531	$$ modification sequence number
$$ ##ORIGIN= Bruker BioSpin GmbH
$$ ##OWNER= nmrsu
$$ $$ 2016-10-18 12:46:49.163 +0200  NMR_mess@av600.nmr.uni-koeln.de
$$ $$ /opt/topspin/conf/instr/spect/uxnmr.par
$$ $$ process /opt/topspin/prog/mod/confamp
$$ ##$ACB= 0
$$ ##$ACBTAT= (0..15)
0 88 72 88 50 0 0 0 0 0 0 0 0 0 0 0
$$ ##$ACBTBA= (0..15)
0 0 0 0 0 0 0 0 0 0 0 0 0 0 0 0
$$ ##$ACBTBLK= (0..15)
0 1 1 1 0 0 0 0 0 0 0 0 0 0 0 0
$$ ##$ACBTCTL= (0..15)
0 6 6 6 6 0 0 0 0 0 0 0 0 0 0 0
$$ ##$ACBTDI= (0..15)
0 -1779670023 -1779670024 -1779670024 -1779670024 0 0 0 0 0 0 0 0 0 0 0
$$ ##$ACBTDM= (0..15)
0 10 25 10 10 0 0 0 0 0 0 0 0 0 0 0
$$ ##$ACBTFHI= (0..15)
0 365 600 365 92 0 0 0 0 0 0 0 0 0 0 0
$$ ##$ACBTFL= (0..15)
0 248 248 248 88 0 0 0 0 0 0 0 0 0 0 0
$$ ##$ACBTFLO= (0..15)
0 6 180 6 30 0 0 0 0 0 0 0 0 0 0 0
$$ ##$ACBTINP= (0..15)
0 3 2 1 9 0 0 0 0 0 0 0 0 0 0 0
$$ ##$ACBTOUT= (0..15)
0 1 1 2 3 0 0 0 0 0 0 0 0 0 0 0
$$ ##$ACBTPO= (0..15)
0 300000 100000 300000 150000 0 0 0 0 0 0 0 0 0 0 0
$$ ##$ACBTPW= (0..15)
0 100 100 100 5 0 0 0 0 0 0 0 0 0 0 0
$$ ##$ACBTSB= (0..15)
0 0 0 0 0 0 0 0 0 0 0 0 0 0 0 0
$$ ##$ACBTY= <no>
$$ ##$AQSBDCH= (0..95)
0 0 0 0 0 0 0 0 255 255 255 255 255 255 255 255 255 255 255 255 255 255
255 255 255 255 255 255 255 255 255 255 255 255 255 255 255 255 255 255
255 255 255 255 255 255 255 255 255 255 255 255 255 255 255 255 255 255
255 255 255 255 255 255 255 255 255 255 255 255 255 255 255 255 255 255
255 255 255 255 255 255 255 255 255 255 255 255 255 255 255 255 255 255
255 255
$$ ##$AQSBDHW= (0..95)
3 1 8 8 8 0 0 0 255 255 255 255 255 255 255 255 255 255 255 255 255 255
255 255 255 255 255 255 255 255 255 255 255 255 255 255 255 255 255 255
255 255 255 255 255 255 255 255 255 255 255 255 255 255 255 255 255 255
255 255 255 255 255 255 255 255 255 255 255 255 255 255 255 255 255 255
255 255 255 255 255 255 255 255 255 255 255 255 255 255 255 255 255 255
255 255
$$ ##$AQSBDID= (0..95)
82 88 83 83 83 80 66 66 255 255 255 255 255 255 255 255 255 255 255 255
255 255 255 255 255 255 255 255 255 255 255 255 255 255 255 255 255 255
255 255 255 255 255 255 255 255 255 255 255 255 255 255 255 255 255 255
255 255 255 255 255 255 255 255 255 255 255 255 255 255 255 255 255 255
255 255 255 255 255 255 255 255 255 255 255 255 255 255 255 255 255 255
255 255 255 255
$$ ##$AQSBDNO= (0..95)
1 1 1 2 3 1 1 1 255 255 255 255 255 255 255 255 255 255 255 255 255 255
255 255 255 255 255 255 255 255 255 255 255 255 255 255 255 255 255 255
255 255 255 255 255 255 255 255 255 255 255 255 255 255 255 255 255 255
255 255 255 255 255 255 255 255 255 255 255 255 255 255 255 255 255 255
255 255 255 255 255 255 255 255 255 255 255 255 255 255 255 255 255 255
255 255
$$ ##$AQSBDSL= (0..95)
2 3 4 5 6 21 23 25 255 255 255 255 255 255 255 255 255 255 255 255 255
255 255 255 255 255 255 255 255 255 255 255 255 255 255 255 255 255 255
255 255 255 255 255 255 255 255 255 255 255 255 255 255 255 255 255 255
255 255 255 255 255 255 255 255 255 255 255 255 255 255 255 255 255 255
255 255 255 255 255 255 255 255 255 255 255 255 255 255 255 255 255 255
255 255 255
$$ ##$AQSBDTY= (0..95)
66 192 25 25 25 207 198 7 255 255 255 255 255 255 255 255 255 255 255 255
255 255 255 255 255 255 255 255 255 255 255 255 255 255 255 255 255 255
255 255 255 255 255 255 255 255 255 255 255 255 255 255 255 255 255 255
255 255 255 255 255 255 255 255 255 255 255 255 255 255 255 255 255 255
255 255 255 255 255 255 255 255 255 255 255 255 255 255 255 255 255 255
255 255 255 255
$$ ##$AQSBUAD= (0..95)
16 52 36 37 38 33 32 32 255 255 255 255 255 255 255 255 255 255 255 255
255 255 255 255 255 255 255 255 255 255 255 255 255 255 255 255 255 255
255 255 255 255 255 255 255 255 255 255 255 255 255 255 255 255 255 255
255 255 255 255 255 255 255 255 255 255 255 255 255 255 255 255 255 255
255 255 255 255 255 255 255 255 255 255 255 255 255 255 255 255 255 255
255 255 255 255
$$ ##$AQSECL= (0..95)
3 1 2 2 2 0 1 255 255 255 255 255 255 255 255 255 255 255 255 255 255 255
255 255 255 255 255 255 255 255 255 255 255 255 255 255 255 255 255 255
255 255 255 255 255 255 255 255 255 255 255 255 255 255 255 255 255 255
255 255 255 255 255 255 255 255 255 255 255 255 255 255 255 255 255 255
255 255 255 255 255 255 255 255 255 255 255 255 255 255 255 255 255 255
255 255
$$ ##$AQSECLS= (0..95)
0 0 0 0 0 0 2 255 255 255 255 255 255 255 255 255 255 255 255 255 255 255
255 255 255 255 255 255 255 255 255 255 255 255 255 255 255 255 255 255
255 255 255 255 255 255 255 255 255 255 255 255 255 255 255 255 255 255
255 255 255 255 255 255 255 255 255 255 255 255 255 255 255 255 255 255
255 255 255 255 255 255 255 255 255 255 255 255 255 255 255 255 255 255
255 255
$$ ##$AQSSPLT= no
$$ ##$ATT19F= (0..1)
0 0
$$ ##$ATT1H= (0..1)
0 0
$$ ##$ATT3H= (0..1)
0 0
$$ ##$ATTX= (0..1)
0 0
$$ ##$ATTY= (0..1)
0 0
$$ ##$ATTZ= (0..1)
0 0
$$ ##$BACSAIR= yes
$$ ##$BACSCAP= 0
$$ ##$BACSDEL= 10
$$ ##$BACSFCM= no
$$ ##$BACSOPT= <>
$$ ##$BACSTY= <no>
$$ ##$BARPTY= <no>
$$ ##$BFREQ= 600.2
$$ ##$BGAETH1= <no>
$$ ##$BGAETH2= <no>
$$ ##$BGAETH3= <no>
$$ ##$BGAETH4= <no>
$$ ##$BGAETH5= <no>
$$ ##$BGAETH6= <no>
$$ ##$BGAETH7= <no>
$$ ##$BGAETH8= <no>
$$ ##$BIRDS= yes
$$ ##$BMPC= 0
$$ ##$BMPCTY= <no>
$$ ##$BPSUTY= <no>
$$ ##$BSMS= 2
$$ ##$BSMSETH= <149.236.99.20>
$$ ##$BSMSTY= <no>
$$ ##$CFASMOD= (0..7)
1 1 1 1 1 1 1 1
$$ ##$CFASMUL= (0..7)
1 1 1 1 1 1 1 1
$$ ##$CNFTXDR= (0..7)
6 6 6 0 0 0 0 0
$$ ##$COMDIG2= 0
$$ ##$CPDBTY= <no>
$$ ##$CRCOTY= <no>
$$ ##$CSW1= (0..31)
3 0 0 2 2 2 9 0 0 0 0 0 0 0 0 0 0 0 0 0 0 0 0 0 0 0 0 0 0 0 0 0
$$ ##$CSW2= (0..31)
0 0 0 1 1 1 0 0 0 0 0 0 0 0 0 0 0 0 0 0 0 0 0 0 0 0 0 0 0 0 0 0
$$ ##$CSWNUM= (0..7)
3 4 0 0 0 0 0 0
$$ ##$DATSTAT= no
$$ ##$DIGI140= (0..7)
0 0 0 0 0 0 0 0
$$ ##$DIGIB12= (0..7)
0 0 0 0 0 0 0 0
$$ ##$DIGIB16= (0..7)
0 0 0 0 0 0 0 0
$$ ##$DIGIFA= (0..7)
0 0 0 0 0 0 0 0
$$ ##$DIGIHA= (0..7)
0 0 0 0 0 0 0 0
$$ ##$DIGIHAF= (0..7)
0 0 0 0 0 0 0 0
$$ ##$DIGIHRD= (0..7)
0 0 0 0 0 0 0 0
$$ ##$DIGIIA= (0..7)
0 0 0 0 0 0 0 0
$$ ##$DIGIO16= (0..7)
0 0 0 0 0 0 0 0
$$ ##$DIGISA= (0..7)
0 0 0 0 0 0 0 0
$$ ##$DIGISAF= (0..7)
0 0 0 0 0 0 0 0
$$ ##$DIGISL= (0..7)
0 0 0 0 0 0 0 0
$$ ##$DIGITYI= (0..7)
0 0 0 0 0 0 0 0
$$ ##$DIGITYP= (0..7)
0 0 0 0 0 0 0 0
$$ ##$DIGITZ= 0
$$ ##$DRU= yes
$$ ##$DRUETH01= <149.236.99.89>
$$ ##$DRUETH02= <no>
$$ ##$DRUETH03= <no>
$$ ##$DRUETH04= <no>
$$ ##$DRUETH05= <no>
$$ ##$DRUETH06= <no>
$$ ##$DRUETH07= <no>
$$ ##$DRUETH08= <no>
$$ ##$DRUETH09= <no>
$$ ##$DRUETH10= <no>
$$ ##$DRUETH11= <no>
$$ ##$DRUETH12= <no>
$$ ##$DRUETH13= <no>
$$ ##$DRUETH14= <no>
$$ ##$DRUETH15= <no>
$$ ##$DRUETH16= <no>
$$ ##$DRUETH17= <no>
$$ ##$DRUETH18= <no>
$$ ##$DRUETH19= <no>
$$ ##$DRUETH20= <no>
$$ ##$DRUETH21= <no>
$$ ##$DRUETH22= <no>
$$ ##$DRUETH23= <no>
$$ ##$DRUETH24= <no>
$$ ##$DRUETH25= <no>
$$ ##$DRUETH26= <no>
$$ ##$DRUETH27= <no>
$$ ##$DRUETH28= <no>
$$ ##$DRUETH29= <no>
$$ ##$DRUETH30= <no>
$$ ##$DRUETH31= <no>
$$ ##$DRUETH32= <no>
$$ ##$FCUMEM= (0..7)
16777208 16777208 16777208 0 0 0 0 0
$$ ##$FCUPAL= (0..7)
0 0 0 0 0 0 0 0
$$ ##$FGSVTY= <no>
$$ ##$FQMIX= 0
$$ ##$FUNCMOD= <>
$$ ##$GCUTYPE= 10
$$ ##$GPREDEL= 1
$$ ##$GPSCUTY= <no>
$$ ##$GRADRES= 5
$$ ##$GTUTY= <no>
$$ ##$HFAC= 3
$$ ##$HPCU= 0
$$ ##$HPCUTY= <no>
$$ ##$HPTXLP= (0..3)
-1 -1 -1 -1
$$ ##$HPTXPI= (0..3)
0 0 0 0
$$ ##$HPTXPO= (0..3)
0 0 0 0
$$ ##$HPTXTY= (0..3)
0 0 0 0
$$ ##$IF451= 0
$$ ##$IFREQ= 1
$$ ##$INTFPR= 0
$$ ##$IPSOETH= <149.236.99.251>
$$ ##$LOCKTY= <no>
$$ ##$LOCSWID= 0
$$ ##$LOCSWIF= 0
$$ ##$M2FAC= 0
$$ ##$MAS= 0
$$ ##$MASETIME= 10
$$ ##$MASITIME= 10
$$ ##$MASTY= <no>
$$ ##$MAS_CT= 0
$$ ##$MAS_SG= 0
$$ ##$MAS_TO= 0
$$ ##$MEMPRM= 0
$$ ##$MHFAC= 0
$$ ##$MXFAC= 0
$$ ##$NAMPD1= <1H LNA>
$$ ##$NAMPD10= <>
$$ ##$NAMPD11= <>
$$ ##$NAMPD12= <>
$$ ##$NAMPD13= <>
$$ ##$NAMPD14= <>
$$ ##$NAMPD15= <>
$$ ##$NAMPD16= <>
$$ ##$NAMPD2= <XBB19F 2HS>
$$ ##$NAMPD3= <XBB19F 2HP>
$$ ##$NAMPD4= <2H>
$$ ##$NAMPD5= <>
$$ ##$NAMPD6= <>
$$ ##$NAMPD7= <>
$$ ##$NAMPD8= <>
$$ ##$NAMPD9= <>
$$ ##$NFCU= 3
$$ ##$NMRCH= 2
$$ ##$NMRMEM= 16384
$$ ##$NRCU= 1
$$ ##$NROUT= 0
$$ ##$NSGU= 3
$$ ##$PAMPF1= (0..15)
75 24 64 64 96 0 0 0 0 0 0 0 0 0 0 0
$$ ##$PAMPF2= (0..15)
0 0 0 0 0 0 0 0 0 0 0 0 0 0 0 0
$$ ##$PAMPF3= (0..15)
0 0 0 0 0 0 0 0 0 0 0 0 0 0 0 0
$$ ##$PAMPF4= (0..15)
0 0 0 0 0 0 0 0 0 0 0 0 0 0 0 0
$$ ##$PAMPF5= (0..15)
0 0 0 0 0 0 0 0 0 0 0 0 0 0 0 0
$$ ##$PAMPF6= (0..15)
0 0 0 0 0 0 0 0 0 0 0 0 0 0 0 0
$$ ##$PAMPF7= (0..15)
0 0 0 0 0 0 0 0 0 0 0 0 0 0 0 0
$$ ##$PAMPF8= (0..15)
0 0 0 0 0 0 0 0 0 0 0 0 0 0 0 0
$$ ##$PH4= 0
$$ ##$PHF4TY= <no>
$$ ##$POWCHK= no
$$ ##$PRAMD1= (0..7)
2 0 0 536870912 0 0 0 0
$$ ##$PRAMD10= (0..7)
0 0 0 0 0 0 0 0
$$ ##$PRAMD11= (0..7)
0 0 0 0 0 0 0 0
$$ ##$PRAMD12= (0..7)
0 0 0 0 0 0 0 0
$$ ##$PRAMD13= (0..7)
0 0 0 0 0 0 0 0
$$ ##$PRAMD14= (0..7)
0 0 0 0 0 0 0 0
$$ ##$PRAMD15= (0..7)
0 0 0 0 0 0 0 0
$$ ##$PRAMD16= (0..7)
0 0 0 0 0 0 0 0
$$ ##$PRAMD17= (0..7)
0 0 0 0 0 0 0 0
$$ ##$PRAMD18= (0..7)
0 0 0 0 0 0 0 0
$$ ##$PRAMD19= (0..7)
0 0 0 0 0 0 0 0
$$ ##$PRAMD2= (0..7)
2147483644 2131230719 2147483647 671088639 0 0 0 0
$$ ##$PRAMD20= (0..7)
0 0 0 0 0 0 0 0
$$ ##$PRAMD21= (0..7)
0 0 0 0 0 0 0 0
$$ ##$PRAMD3= (0..7)
2147483644 2147483647 2147483647 671088639 0 0 0 0
$$ ##$PRAMD4= (0..7)
0 1048576 0 536870912 0 1048576 0 536870912
$$ ##$PRAMD5= (0..7)
0 0 0 0 0 0 0 0
$$ ##$PRAMD6= (0..7)
0 0 0 0 0 0 0 0
$$ ##$PRAMD7= (0..7)
0 0 0 0 0 0 0 0
$$ ##$PRAMD8= (0..7)
0 0 0 0 0 0 0 0
$$ ##$PRAMD9= (0..7)
0 0 0 0 0 0 0 0
$$ ##$PRAMLED= (0..1)
15 15
$$ ##$PRAMP1= <tty10>
$$ ##$PRAMP2= <no>
$$ ##$PRAMP3= <no>
$$ ##$PRAMP4= <no>
$$ ##$PRAMP5= <no>
$$ ##$PRAMP6= <no>
$$ ##$PRAMP7= <no>
$$ ##$PRAMP8= <no>
$$ ##$PRAMPTP= 1
$$ ##$PREPTY= <no>
$$ ##$PRESHLD= 0
$$ ##$PTS160= -1
$$ ##$PTSA2X= (0..7)
0 0 0 0 0 0 0 0
$$ ##$PTSF2X= (0..7)
0 0 0 0 0 0 0 0
$$ ##$PTSFMX= (0..7)
643.52499 643.52499 643.52499 0 0 0 0 0
$$ ##$PULCHK= no
$$ ##$RCUCDS= (0..7)
0 0 0 0 0 0 0 0
$$ ##$RCUCFS= (0..7)
0 0 0 0 0 0 0 0
$$ ##$RCUCSS= (0..7)
0 0 0 0 0 0 0 0
$$ ##$RCUI2C1= (0..7)
0 0 0 0 0 0 0 0
$$ ##$RCUI2C2= (0..7)
0 0 0 0 0 0 0 0
$$ ##$RCUI2C3= (0..7)
0 0 0 0 0 0 0 0
$$ ##$RCUI2C4= (0..7)
0 0 0 0 0 0 0 0
$$ ##$RCUI2C5= (0..7)
0 0 0 0 0 0 0 0
$$ ##$RCUI2C6= (0..7)
0 0 0 0 0 0 0 0
$$ ##$RCUI2C7= (0..7)
0 0 0 0 0 0 0 0
$$ ##$RCUI2C8= (0..7)
0 0 0 0 0 0 0 0
$$ ##$RDCU= 0
$$ ##$RFSVTY= <no>
$$ ##$RGTYPE= (0..31)
9 0 0 0 0 0 0 0 0 0 0 0 0 0 0 0 0 0 0 0 0 0 0 0 0 0 0 0 0 0 0 0
$$ ##$RG_max= (0..31)
46300 0 0 0 0 0 0 0 0 0 0 0 0 0 0 0 0 0 0 0 0 0 0 0 0 0 0 0 0 0 0 0
$$ ##$RG_min= (0..31)
0.25 0 0 0 0 0 0 0 0 0 0 0 0 0 0 0 0 0 0 0 0 0 0 0 0 0 0 0 0 0 0 0
$$ ##$RG_tab1= (0..255)
0.25 0.28 0.32 0.35 0.4 0.44 0.5 0.56 0.64 0.7 0.8 0.89 1 1.12 1.28 1.4
1.6 1.78 2 2.25 2.56 2.8 3.2 3.56 4 4.5 5 5.6 6.35 7.12 8 9 10 11.3 12.7
14.2 16 18 20.2 22.6 25.4 28.5 32 36 40.3 45.2 50.8 57 64 71.8 80.6 90.5
101 114 128 144 161 181 203 228 256 287 322 362 406 456 512 575 645 724
812 912 1030 1150 1290 1440 1620 1820 2050 -1 -1 -1 -1 -1 -1 -1 -1 -1 -1
-1 -1 -1 -1 -1 -1 -1 -1 -1 -1 -1 -1 -1 -1 -1 -1 -1 -1 -1 -1 -1 -1 -1 -1
-1 -1 -1 -1 -1 -1 -1 -1 -1 -1 -1 -1 -1 -1 -1 -1 -1 -1 -1 -1 -1 -1 -1 -1
-1 -1 -1 -1 -1 -1 -1 -1 -1 -1 -1 -1 -1 -1 -1 -1 -1 -1 -1 -1 -1 -1 -1 -1
-1 -1 -1 -1 -1 -1 -1 -1 -1 -1 -1 -1 -1 -1 -1 -1 -1 -1 -1 -1 -1 -1 -1 -1
-1 -1 -1 -1 -1 -1 -1 -1 -1 -1 -1 -1 -1 -1 -1 -1 -1 -1 -1 -1 -1 -1 -1 -1
-1 -1 -1 -1 -1 -1 -1 -1 -1 -1 -1 -1 -1 -1 -1 -1 -1 -1 -1 -1 -1 -1 -1 -1
-1 -1 -1 -1 -1 -1 -1 -1 -1 -1 -1 -1 -1 -1 -1 -1 -1 -1 -1 -1 -1 -1 -1
$$ ##$RG_tab2= (0..255)
-1 -1 -1 -1 -1 -1 -1 -1 -1 -1 -1 -1 -1 -1 -1 -1 -1 -1 -1 -1 -1 -1 -1 -1
-1 -1 -1 -1 -1 -1 -1 -1 -1 -1 -1 -1 -1 -1 -1 -1 -1 -1 -1 -1 -1 -1 -1 -1
-1 -1 -1 -1 -1 -1 -1 -1 -1 -1 -1 -1 -1 -1 -1 -1 -1 -1 -1 -1 -1 -1 -1 -1
-1 -1 -1 -1 -1 -1 -1 -1 -1 -1 -1 -1 -1 -1 -1 -1 -1 -1 -1 -1 -1 -1 -1 -1
-1 -1 -1 -1 -1 -1 -1 -1 -1 -1 -1 -1 -1 -1 -1 -1 -1 -1 -1 -1 -1 -1 -1 -1
-1 -1 -1 -1 -1 -1 -1 -1 -1 -1 -1 -1 -1 -1 -1 -1 -1 -1 -1 -1 -1 -1 -1 -1
-1 -1 -1 -1 -1 -1 -1 -1 -1 -1 -1 -1 -1 -1 -1 -1 -1 -1 -1 -1 -1 -1 -1 -1
-1 -1 -1 -1 -1 -1 -1 -1 -1 -1 -1 -1 -1 -1 -1 -1 -1 -1 -1 -1 -1 -1 -1 -1
-1 -1 -1 -1 -1 -1 -1 -1 -1 -1 -1 -1 -1 -1 -1 -1 -1 -1 -1 -1 -1 -1 -1 -1
-1 -1 -1 -1 -1 -1 -1 -1 -1 -1 -1 -1 -1 -1 -1 -1 -1 -1 -1 -1 -1 -1 -1 -1
-1 -1 -1 -1 -1 -1 -1 -1 -1 -1 -1 -1 -1 -1 -1 -1
$$ ##$RG_tab3= (0..255)
-1 -1 -1 -1 -1 -1 -1 -1 -1 -1 -1 -1 -1 -1 -1 -1 -1 -1 -1 -1 -1 -1 -1 -1
-1 -1 -1 -1 -1 -1 -1 -1 -1 -1 -1 -1 -1 -1 -1 -1 -1 -1 -1 -1 -1 -1 -1 -1
-1 -1 -1 -1 -1 -1 -1 -1 -1 -1 -1 -1 -1 -1 -1 -1 -1 -1 -1 -1 -1 -1 -1 -1
-1 -1 -1 -1 -1 -1 -1 -1 -1 -1 -1 -1 -1 -1 -1 -1 -1 -1 -1 -1 -1 -1 -1 -1
-1 -1 -1 -1 -1 -1 -1 -1 -1 -1 -1 -1 -1 -1 -1 -1 -1 -1 -1 -1 -1 -1 -1 -1
-1 -1 -1 -1 -1 -1 -1 -1 -1 -1 -1 -1 -1 -1 -1 -1 -1 -1 -1 -1 -1 -1 -1 -1
-1 -1 -1 -1 -1 -1 -1 -1 -1 -1 -1 -1 -1 -1 -1 -1 -1 -1 -1 -1 -1 -1 -1 -1
-1 -1 -1 -1 -1 -1 -1 -1 -1 -1 -1 -1 -1 -1 -1 -1 -1 -1 -1 -1 -1 -1 -1 -1
-1 -1 -1 -1 -1 -1 -1 -1 -1 -1 -1 -1 -1 -1 -1 -1 -1 -1 -1 -1 -1 -1 -1 -1
-1 -1 -1 -1 -1 -1 -1 -1 -1 -1 -1 -1 -1 -1 -1 -1 -1 -1 -1 -1 -1 -1 -1 -1
-1 -1 -1 -1 -1 -1 -1 -1 -1 -1 -1 -1 -1 -1 -1 -1
$$ ##$RG_tab4= (0..255)
-1 -1 -1 -1 -1 -1 -1 -1 -1 -1 -1 -1 -1 -1 -1 -1 -1 -1 -1 -1 -1 -1 -1 -1
-1 -1 -1 -1 -1 -1 -1 -1 -1 -1 -1 -1 -1 -1 -1 -1 -1 -1 -1 -1 -1 -1 -1 -1
-1 -1 -1 -1 -1 -1 -1 -1 -1 -1 -1 -1 -1 -1 -1 -1 -1 -1 -1 -1 -1 -1 -1 -1
-1 -1 -1 -1 -1 -1 -1 -1 -1 -1 -1 -1 -1 -1 -1 -1 -1 -1 -1 -1 -1 -1 -1 -1
-1 -1 -1 -1 -1 -1 -1 -1 -1 -1 -1 -1 -1 -1 -1 -1 -1 -1 -1 -1 -1 -1 -1 -1
-1 -1 -1 -1 -1 -1 -1 -1 -1 -1 -1 -1 -1 -1 -1 -1 -1 -1 -1 -1 -1 -1 -1 -1
-1 -1 -1 -1 -1 -1 -1 -1 -1 -1 -1 -1 -1 -1 -1 -1 -1 -1 -1 -1 -1 -1 -1 -1
-1 -1 -1 -1 -1 -1 -1 -1 -1 -1 -1 -1 -1 -1 -1 -1 -1 -1 -1 -1 -1 -1 -1 -1
-1 -1 -1 -1 -1 -1 -1 -1 -1 -1 -1 -1 -1 -1 -1 -1 -1 -1 -1 -1 -1 -1 -1 -1
-1 -1 -1 -1 -1 -1 -1 -1 -1 -1 -1 -1 -1 -1 -1 -1 -1 -1 -1 -1 -1 -1 -1 -1
-1 -1 -1 -1 -1 -1 -1 -1 -1 -1 -1 -1 -1 -1 -1 -1
$$ ##$RG_tab5= (0..255)
-1 -1 -1 -1 -1 -1 -1 -1 -1 -1 -1 -1 -1 -1 -1 -1 -1 -1 -1 -1 -1 -1 -1 -1
-1 -1 -1 -1 -1 -1 -1 -1 -1 -1 -1 -1 -1 -1 -1 -1 -1 -1 -1 -1 -1 -1 -1 -1
-1 -1 -1 -1 -1 -1 -1 -1 -1 -1 -1 -1 -1 -1 -1 -1 -1 -1 -1 -1 -1 -1 -1 -1
-1 -1 -1 -1 -1 -1 -1 -1 -1 -1 -1 -1 -1 -1 -1 -1 -1 -1 -1 -1 -1 -1 -1 -1
-1 -1 -1 -1 -1 -1 -1 -1 -1 -1 -1 -1 -1 -1 -1 -1 -1 -1 -1 -1 -1 -1 -1 -1
-1 -1 -1 -1 -1 -1 -1 -1 -1 -1 -1 -1 -1 -1 -1 -1 -1 -1 -1 -1 -1 -1 -1 -1
-1 -1 -1 -1 -1 -1 -1 -1 -1 -1 -1 -1 -1 -1 -1 -1 -1 -1 -1 -1 -1 -1 -1 -1
-1 -1 -1 -1 -1 -1 -1 -1 -1 -1 -1 -1 -1 -1 -1 -1 -1 -1 -1 -1 -1 -1 -1 -1
-1 -1 -1 -1 -1 -1 -1 -1 -1 -1 -1 -1 -1 -1 -1 -1 -1 -1 -1 -1 -1 -1 -1 -1
-1 -1 -1 -1 -1 -1 -1 -1 -1 -1 -1 -1 -1 -1 -1 -1 -1 -1 -1 -1 -1 -1 -1 -1
-1 -1 -1 -1 -1 -1 -1 -1 -1 -1 -1 -1 -1 -1 -1 -1
$$ ##$RG_tab6= (0..255)
-1 -1 -1 -1 -1 -1 -1 -1 -1 -1 -1 -1 -1 -1 -1 -1 -1 -1 -1 -1 -1 -1 -1 -1
-1 -1 -1 -1 -1 -1 -1 -1 -1 -1 -1 -1 -1 -1 -1 -1 -1 -1 -1 -1 -1 -1 -1 -1
-1 -1 -1 -1 -1 -1 -1 -1 -1 -1 -1 -1 -1 -1 -1 -1 -1 -1 -1 -1 -1 -1 -1 -1
-1 -1 -1 -1 -1 -1 -1 -1 -1 -1 -1 -1 -1 -1 -1 -1 -1 -1 -1 -1 -1 -1 -1 -1
-1 -1 -1 -1 -1 -1 -1 -1 -1 -1 -1 -1 -1 -1 -1 -1 -1 -1 -1 -1 -1 -1 -1 -1
-1 -1 -1 -1 -1 -1 -1 -1 -1 -1 -1 -1 -1 -1 -1 -1 -1 -1 -1 -1 -1 -1 -1 -1
-1 -1 -1 -1 -1 -1 -1 -1 -1 -1 -1 -1 -1 -1 -1 -1 -1 -1 -1 -1 -1 -1 -1 -1
-1 -1 -1 -1 -1 -1 -1 -1 -1 -1 -1 -1 -1 -1 -1 -1 -1 -1 -1 -1 -1 -1 -1 -1
-1 -1 -1 -1 -1 -1 -1 -1 -1 -1 -1 -1 -1 -1 -1 -1 -1 -1 -1 -1 -1 -1 -1 -1
-1 -1 -1 -1 -1 -1 -1 -1 -1 -1 -1 -1 -1 -1 -1 -1 -1 -1 -1 -1 -1 -1 -1 -1
-1 -1 -1 -1 -1 -1 -1 -1 -1 -1 -1 -1 -1 -1 -1 -1
$$ ##$RG_tab7= (0..255)
-1 -1 -1 -1 -1 -1 -1 -1 -1 -1 -1 -1 -1 -1 -1 -1 -1 -1 -1 -1 -1 -1 -1 -1
-1 -1 -1 -1 -1 -1 -1 -1 -1 -1 -1 -1 -1 -1 -1 -1 -1 -1 -1 -1 -1 -1 -1 -1
-1 -1 -1 -1 -1 -1 -1 -1 -1 -1 -1 -1 -1 -1 -1 -1 -1 -1 -1 -1 -1 -1 -1 -1
-1 -1 -1 -1 -1 -1 -1 -1 -1 -1 -1 -1 -1 -1 -1 -1 -1 -1 -1 -1 -1 -1 -1 -1
-1 -1 -1 -1 -1 -1 -1 -1 -1 -1 -1 -1 -1 -1 -1 -1 -1 -1 -1 -1 -1 -1 -1 -1
-1 -1 -1 -1 -1 -1 -1 -1 -1 -1 -1 -1 -1 -1 -1 -1 -1 -1 -1 -1 -1 -1 -1 -1
-1 -1 -1 -1 -1 -1 -1 -1 -1 -1 -1 -1 -1 -1 -1 -1 -1 -1 -1 -1 -1 -1 -1 -1
-1 -1 -1 -1 -1 -1 -1 -1 -1 -1 -1 -1 -1 -1 -1 -1 -1 -1 -1 -1 -1 -1 -1 -1
-1 -1 -1 -1 -1 -1 -1 -1 -1 -1 -1 -1 -1 -1 -1 -1 -1 -1 -1 -1 -1 -1 -1 -1
-1 -1 -1 -1 -1 -1 -1 -1 -1 -1 -1 -1 -1 -1 -1 -1 -1 -1 -1 -1 -1 -1 -1 -1
-1 -1 -1 -1 -1 -1 -1 -1 -1 -1 -1 -1 -1 -1 -1 -1
$$ ##$RG_tab8= (0..255)
-1 -1 -1 -1 -1 -1 -1 -1 -1 -1 -1 -1 -1 -1 -1 -1 -1 -1 -1 -1 -1 -1 -1 -1
-1 -1 -1 -1 -1 -1 -1 -1 -1 -1 -1 -1 -1 -1 -1 -1 -1 -1 -1 -1 -1 -1 -1 -1
-1 -1 -1 -1 -1 -1 -1 -1 -1 -1 -1 -1 -1 -1 -1 -1 -1 -1 -1 -1 -1 -1 -1 -1
-1 -1 -1 -1 -1 -1 -1 -1 -1 -1 -1 -1 -1 -1 -1 -1 -1 -1 -1 -1 -1 -1 -1 -1
-1 -1 -1 -1 -1 -1 -1 -1 -1 -1 -1 -1 -1 -1 -1 -1 -1 -1 -1 -1 -1 -1 -1 -1
-1 -1 -1 -1 -1 -1 -1 -1 -1 -1 -1 -1 -1 -1 -1 -1 -1 -1 -1 -1 -1 -1 -1 -1
-1 -1 -1 -1 -1 -1 -1 -1 -1 -1 -1 -1 -1 -1 -1 -1 -1 -1 -1 -1 -1 -1 -1 -1
-1 -1 -1 -1 -1 -1 -1 -1 -1 -1 -1 -1 -1 -1 -1 -1 -1 -1 -1 -1 -1 -1 -1 -1
-1 -1 -1 -1 -1 -1 -1 -1 -1 -1 -1 -1 -1 -1 -1 -1 -1 -1 -1 -1 -1 -1 -1 -1
-1 -1 -1 -1 -1 -1 -1 -1 -1 -1 -1 -1 -1 -1 -1 -1 -1 -1 -1 -1 -1 -1 -1 -1
-1 -1 -1 -1 -1 -1 -1 -1 -1 -1 -1 -1 -1 -1 -1 -1
$$ ##$RG_tabA= (0..255)
0.25 0.28 0.32 0.35 0.4 0.44 0.5 0.56 0.64 0.7 0.8 0.89 1 1.12 1.28 1.4
1.6 1.78 2 2.25 2.56 2.8 3.2 3.56 4 4.5 5 5.6 6.35 7.12 8 9 10 11.3 12.7
14.2 16 18 20.2 22.6 25.4 28.5 32 36 40.3 45.2 50.8 57 64 71.8 80.6 90.5
101 114 128 144 161 181 203 228 256 287 322 362 406 456 512 575 645 724
812 912 1030 1150 1290 1440 1620 1820 2050 -1 -1 -1 -1 -1 -1 -1 -1 -1 -1
-1 -1 -1 -1 -1 -1 -1 -1 -1 -1 -1 -1 -1 -1 -1 -1 -1 -1 -1 -1 -1 -1 -1 -1
-1 -1 -1 -1 -1 -1 -1 -1 -1 -1 -1 -1 -1 -1 -1 -1 -1 -1 -1 -1 -1 -1 -1 -1
-1 -1 -1 -1 -1 -1 -1 -1 -1 -1 -1 -1 -1 -1 -1 -1 -1 -1 -1 -1 -1 -1 -1 -1
-1 -1 -1 -1 -1 -1 -1 -1 -1 -1 -1 -1 -1 -1 -1 -1 -1 -1 -1 -1 -1 -1 -1 -1
-1 -1 -1 -1 -1 -1 -1 -1 -1 -1 -1 -1 -1 -1 -1 -1 -1 -1 -1 -1 -1 -1 -1 -1
-1 -1 -1 -1 -1 -1 -1 -1 -1 -1 -1 -1 -1 -1 -1 -1 -1 -1 -1 -1 -1 -1 -1 -1
-1 -1 -1 -1 -1 -1 -1 -1 -1 -1 -1 -1 -1 -1 -1 -1 -1 -1 -1 -1 -1 -1 -1
$$ ##$ROUT14= (0..7)
0 0 0 0 0 0 0 0
$$ ##$ROUTER= -1
$$ ##$RX22TY= <no>
$$ ##$RXFMAX= (0..7)
647.5 -1 -1 -1 -1 -1 -1 -1
$$ ##$RXFMIN= (0..7)
5 -1 -1 -1 -1 -1 -1 -1
$$ ##$RXINTLV= (0..7)
1 0 0 0 0 0 0 0
$$ ##$RXMSTY= <no>
$$ ##$SCMTY= <no>
$$ ##$SGUC1= (0..15)
33 34 17 0 0 0 0 0 0 0 0 0 0 0 0 0
$$ ##$SGUC2= (0..15)
36 256 35 0 0 0 0 0 0 0 0 0 0 0 0 0
$$ ##$SPECTR= 10
$$ ##$SY2FLAG= 0
$$ ##$TFXNUM= 0
$$ ##$TRIPLO2= 0
$$ ##$VTUTY= <tty05>
$$ ##$WBREFAM= (0..15)
100 100 100 100 100 100 100 100 100 100 100 100 100 100 100 100
$$ ##$WBREFPH= (0..15)
0 0 0 0 0 0 0 0 0 0 0 0 0 0 0 0
$$ ##$XFAC= 2
$$ ##END=
##$RELAX= 
##$BRUKER FILE PROC=peaklist.xml
$$ <?xml version="1.0" encoding="UTF-8"?>
$$ <PeakList modified="2016-12-02T15:05:25">
$$   <PeakList1D>
$$     <PeakList1DHeader creator="nes" date="2016-12-02T15:05:25" expNo="2" name="dd_nes_menthol_dmso_011216" owner="" procNo="1" source="C:/transferNMR">
$$       <PeakPickDetails>F1=72.528ppm, F2=44.336ppm, MI=1.44cm, MAXI=4.61cm, PC=1.400
$$       </PeakPickDetails>
$$     </PeakList1DHeader>
$$     <Peak1D F1="69.9654" intensity="2.63" type="0"/>
$$     <Peak1D F1="50.0396" intensity="2.67" type="0"/>
$$     <Peak1D F1="45.6785" intensity="2.49" type="0"/>
$$   </PeakList1D>
$$   <PeakList1D>
$$     <PeakList1DHeader creator="nes" date="2016-12-02T15:05:25" expNo="2" name="dd_nes_menthol_dmso_011216" owner="" procNo="1" source="C:/transferNMR">
$$       <PeakPickDetails>F1=36.241ppm, F2=14.233ppm, MI=1.39cm, MAXI=4.18cm, PC=1.400
$$       </PeakPickDetails>
$$     </PeakList1DHeader>
$$     <Peak1D F1="34.8431" intensity="2.46" type="0"/>
$$     <Peak1D F1="31.6323" intensity="2.64" type="0"/>
$$     <Peak1D F1="25.5452" intensity="2.42" type="0"/>
$$     <Peak1D F1="23.3019" intensity="2.48" type="0"/>
$$     <Peak1D F1="22.7700" intensity="2.46" type="0"/>
$$     <Peak1D F1="21.4777" intensity="2.38" type="0"/>
$$     <Peak1D F1="16.5504" intensity="2.36" type="0"/>
$$   </PeakList1D>
$$ </PeakList>
##$RELAX= 
##$BRUKER FILE PROC=peakrng
$$ P    #regions in PPM
$$ # 2016-12-02 15:05:27 +0100  nes@nmr-dd-nes
$$ # low field   high field   mi   maxi
$$   72.52838655635244  44.33553410184554  1.442  4.614  # for region 1
$$   36.24145710684194  14.23284325525913  1.388  4.182  # for region 2
##$RELAX= 
$$ Bruker specific parameters
$$ --------------------------
##$DATPATH= <C:\Bruker\TopSpin3.6.0\data\luc\nmr>
##$EXPNO= 2
##$NAME= <Displayer_2216-51-5_kombi>
##$PROCNO= 1
##$ACQT0= -2.33193285324994
##$AMP= (0..31)
100 100 100 100 100 100 100 100 100 100 100 100 100 100 100 100 100 100
100 100 100 100 100 100 100 100 100 100 100 100 100 100
##$AMPCOIL= (0..19)
0 0 0 0 0 0 0 0 0 0 0 0 0 0 0 0 0 0 0 0
##$ANAVPT= -1
##$AQSEQ= 0
##$AQ_mod= 3
##$AUNM= <au_zg>
##$AUTOPOS= <>
##$BF1= 150.92041
##$BF2= 600.2
##$BF3= 600.2
##$BF4= 150.930468
##$BF5= 500.13
##$BF6= 500.13
##$BF7= 500.13
##$BF8= 500.13
##$BWFAC= (0..63)
0 0 0 0 0 0 0 0 0 0 0 0 0 0 0 0 0 0 0 0 0 0 0 0 0 0 0 0 0 0 0 0 0 0 0 0
0 0 0 0 0 0 0 0 0 0 0 0 0 0 0 0 0 0 0 0 0 0 0 0 0 0 0 0
##$BYTORDA= 0
##$CAGPARS= (0..11)
0 0 0 0 0 0 0 0 0 0 0 0
##$CHEMSTR= <none>
##$CNST= (0..63)
1 1 145 1 1 1 1 1 1 1 1 1 1 1 1 1 1 1 1 1 1 1 1 1 1 1 1 1 1 1 1 1 1 1 1
1 1 1 1 1 1 1 1 1 1 1 1 1 1 1 1 1 1 1 1 1 1 1 1 1 1 1 1 1
##$CPDPRG= (0..8)
<waltz16> <> <waltz16> <> <mlev> <mlev> <mlev> <mlev> <mlev>
##$D= (0..63)
0 3 0.00345 0 0 0 0 0 0 0 0 0.03 2e-005 3e-006 0 0 0 0 0 0 0 0 0 0 0 0
0 0 0 0 0 0 0 0 0 0 0 0 0 0 0 0 0 0 0 0 0 0 0 0 0 0 0 0 0 0 0 0 0 0 0 0
0 0
##$DATE= 1480685365
##$DE= 6
##$DECBNUC= <off>
##$DECIM= 672
##$DECNUC= <off>
##$DECSTAT= 4
##$DIGMOD= 1
##$DIGTYP= 12
##$DQDMODE= 0
##$DR= 21
##$DS= 4
##$DSPFIRM= 0
##$DSPFVS= 20
##$DTYPA= 0
##$EXP= <13c_zgdc30_bbo.nes>
##$FCUCHAN= (0..9)
0 1 2 0 0 0 0 0 0 0
##$FL1= 83
##$FL2= 83
##$FL3= 83
##$FL4= 83
##$FN_INDIRECT= (0..7)
0 0 0 0 0 0 0 0
##$FOV= 20
##$FQ1LIST= <freqlist>
##$FQ2LIST= <freqlist>
##$FQ3LIST= <freqlist>
##$FQ4LIST= <freqlist>
##$FQ5LIST= <freqlist>
##$FQ6LIST= <freqlist>
##$FQ7LIST= <freqlist>
##$FQ8LIST= <freqlist>
##$FRQLO3= 1213690.06104999
##$FRQLO3N= 0
##$FS= (0..7)
83 83 83 83 83 83 83 83
##$FTLPGN= 0
##$FW= 250000
##$FnILOOP= 0
##$FnMODE= 0
##$FnTYPE= 0
##$GPNAM= (0..31)
<SINE.100> <SINE.100> <SINE.100> <SINE.100> <SINE.100> <SINE.100> <SINE.100>
<SINE.100> <SINE.100> <SINE.100> <SINE.100> <SINE.100> <SINE.100> <SINE.100>
<SINE.100> <SINE.100> <SINE.100> <SINE.100> <SINE.100> <SINE.100> <SINE.100>
<SINE.100> <SINE.100> <SINE.100> <SINE.100> <SINE.100> <SINE.100> <SINE.100>
<SINE.100> <SINE.100> <SINE.100> <SINE.100>
##$GPX= (0..31)
0 0 0 0 0 0 0 0 0 0 0 0 0 0 0 0 0 0 0 0 0 0 0 0 0 0 0 0 0 0 0 0
##$GPY= (0..31)
0 0 0 0 0 0 0 0 0 0 0 0 0 0 0 0 0 0 0 0 0 0 0 0 0 0 0 0 0 0 0 0
##$GPZ= (0..31)
0 0 0 0 0 0 0 0 0 0 0 0 0 0 0 0 0 0 0 0 0 0 0 0 0 0 0 0 0 0 0 0
##$GRDPROG= <>
##$GRPDLY= 67.9838256835938
##$HDDUTY= 20
##$HDRATE= 20
##$HGAIN= (0..3)
0 0 0 0
##$HL1= 3
##$HL2= 83
##$HL3= 83
##$HL4= 83
##$HOLDER= 0
##$HPMOD= (0..7)
0 0 0 0 0 0 0 0
##$HPPRGN= 0
##$IN= (0..63)
0.001 0.001 0.001 0.001 0.001 0.001 0.001 0.001 0.001 0.001 0.001 0.001
0.001 0.001 0.001 0.001 0.001 0.001 0.001 0.001 0.001 0.001 0.001 0.001
0.001 0.001 0.001 0.001 0.001 0.001 0.001 0.001 0.001 0.001 0.001 0.001
0.001 0.001 0.001 0.001 0.001 0.001 0.001 0.001 0.001 0.001 0.001 0.001
0.001 0.001 0.001 0.001 0.001 0.001 0.001 0.001 0.001 0.001 0.001 0.001
0.001 0.001 0.001 0.001
##$INF= (0..7)
0 0 0 0 0 0 0 0
##$INP= (0..63)
0 0 0 0 0 0 0 0 0 0 0 0 0 0 0 0 0 0 0 0 0 0 0 0 0 0 0 0 0 0 0 0 0 0 0 0
0 0 0 0 0 0 0 0 0 0 0 0 0 0 0 0 0 0 0 0 0 0 0 0 0 0 0 0
##$INSTRUM= <spect>
##$INTEGFAC= (0..63)
0 0 0 0 0 0 0 0 0 0 0 0 0 0 0 0 0 0 0 0 0 0 0 0 0 0 0 0 0 0 0 0 0 0 0 0
0 0 0 0 0 0 0 0 0 0 0 0 0 0 0 0 0 0 0 0 0 0 0 0 0 0 0 0
##$L= (0..31)
1 1 1 1 1 1 1 1 1 1 1 1 1 1 1 1 1 1 1 1 1 1 1 1 1 1 1 1 1 1 1 1
##$LFILTER= 200
##$LGAIN= 5
##$LINPSTP= 0
##$LOCKED= yes
##$LOCKFLD= 5606
##$LOCKGN= 104.146690368652
##$LOCKPOW= -29.9999942779541
##$LOCKPPM= 2.49000000953674
##$LOCNUC= <2H>
##$LOCPHAS= 95
##$LOCSHFT= yes
##$LOCSW= 0
##$LTIME= 0.25
##$MASR= 4200
##$MASRLST= <masrlst>
##$MULEXPNO= (0..15)
0 0 0 0 0 0 0 0 0 0 0 0 0 0 0 0
##$NBL= 1
##$NC= -5
##$NLOGCH= 3
##$NOVFLW= 0
##$NS= 28
##$NUC1= <13C>
##$NUC2= <1H>
##$NUC3= <off>
##$NUC4= <off>
##$NUC5= <off>
##$NUC6= <off>
##$NUC7= <off>
##$NUC8= <off>
##$NUCLEUS= <off>
##$NUSLIST= <>
##$NusAMOUNT= 0
##$NusFPNZ= no
##$NusJSP= 0
##$NusSEED= 0
##$NusSPTYPE= 0
##$NusT2= 0
##$NusTD= 0
##$O1= 14337.43895
##$O2= 3001.2
##$O3= 15093.09
##$O4= 15093.0948047971
##$O5= 0
##$O6= 0
##$O7= 0
##$O8= 0
##$OVERFLW= 0
##$P= (0..63)
11 11.1 22 8.5 17 0 0 0 0 0 0 0 0 0 0 0 1000 0 0 0 0 0 0 0 0 0 0 0 0 0
0 100 0 0 0 0 0 0 0 0 0 0 0 0 0 0 0 0 0 0 0 0 0 0 0 0 0 0 0 0 0 0 0 0
##$PACOIL= (0..15)
0 0 0 0 0 0 0 0 0 0 0 0 0 0 0 0
##$PAPS= 2
##$PARMODE= 0
##$PCPD= (0..9)
100 100 100 100 100 100 100 100 100 100
##$PEXSEL= (0..9)
1 1 1 1 1 1 1 1 1 1
##$PHCOR= (0..31)
0 0 0 0 0 0 0 0 0 0 0 0 0 0 0 0 0 0 0 0 0 0 0 0 0 0 0 0 0 0 0 0
##$PHLIST= <>
##$PHP= 2
##$PH_ref= 0
##$PL= (0..63)
120 3.4 17 120 120 120 120 120 120 120 120 120 17 17 120 120 120 120 120
120 120 120 120 120 120 120 120 120 120 120 120 120 120 120 120 120 120
120 120 120 120 120 120 120 120 120 120 120 120 120 120 120 120 120 120
120 120 120 120 120 120 120 120 120
##$PLSTEP= 0.1
##$PLSTRT= -6
##$PLW= (0..63)
-1 -1 -1 -1 -1 -1 -1 -1 -1 -1 -1 -1 -1 -1 -1 -1 -1 -1 -1 -1 -1 -1 -1 -1
-1 -1 -1 -1 -1 -1 -1 -1 -1 -1 -1 -1 -1 -1 -1 -1 -1 -1 -1 -1 -1 -1 -1 -1
-1 -1 -1 -1 -1 -1 -1 -1 -1 -1 -1 -1 -1 -1 -1 -1
##$PLWMAX= (0..7)
0 0 0 0 0 0 0 0
##$PQPHASE= 0
##$PQSCALE= 0
##$PR= 4
##$PRECHAN= (0..15)
-1 1 0 2 -1 -1 -1 -1 -1 3 -1 -1 -1 -1 -1 -1
##$PRGAIN= 0
##$PROBHD= <5 mm BBO BB-1H/D Z-GRD Z8478/0071
>
##$PROBINPUTS= (0..15)
<> <> <> <> <> <> <> <> <> <> <> <> <> <> <> <>
##$PULPROG= <zgdc30>
##$PW= 0
##$PYNM= <acqu.py>
##$ProjAngle= 0
##$QNP= 1
##$RD= 0
##$RECCHAN= (0..15)
0 1 0 0 0 0 0 0 0 0 0 0 0 0 0 0
##$RECPH= 0
##$RECPRE= (0..15)
-1 1 -1 -1 -1 -1 -1 -1 -1 -1 -1 -1 -1 -1 -1 -1
##$RECPRFX= (0..15)
-1 0 0 0 0 0 0 0 0 0 0 0 0 0 0 0
##$RECSEL= (0..15)
0 1 0 0 0 0 0 0 0 0 0 0 0 0 0 0
##$RG= 2050
##$RO= 0
##$RSEL= (0..15)
0 1 2 0 0 0 0 0 0 0 0 0 0 0 0 0
##$S= (0..7)
83 25 26 83 26 83 83 83
##$SELREC= (0..9)
0 0 0 0 0 0 0 0 0 0
##$SFO1= 150.93474743895
##$SFO2= 600.2030012
##$SFO3= 600.21509309
##$SFO4= 150.945561094805
##$SFO5= 500.13
##$SFO6= 500.13
##$SFO7= 500.13
##$SFO8= 500.13
##$SOLVENT= <DMSO>
##$SOLVOLD= <off>
##$SP= (0..63)
1 0 0 0 0 0 0 0 0 0 0 0 0 0 0 0 150 150 150 150 150 150 150 150 150 150
150 150 150 150 150 150 120 120 120 120 120 120 120 120 120 120 120 120
120 120 120 120 120 120 120 120 120 120 120 120 120 120 120 120 120 120
120 120
##$SPECTR= 0
##$SPINCNT= 0
##$SPNAM= (0..63)
<gauss> <gauss> <gauss> <gauss> <gauss> <gauss> <gauss> <gauss> <gauss>
<gauss> <gauss> <gauss> <gauss> <gauss> <gauss> <gauss> <gauss> <gauss>
<gauss> <gauss> <gauss> <gauss> <gauss> <gauss> <gauss> <gauss> <gauss>
<gauss> <gauss> <gauss> <gauss> <gauss> <> <> <> <> <> <> <> <> <> <> <>
<> <> <> <> <> <> <> <> <> <> <> <> <> <> <> <> <> <> <> <> <>
##$SPOAL= (0..63)
0.5 0.5 0.5 0.5 0.5 0.5 0.5 0.5 0.5 0.5 0.5 0.5 0.5 0.5 0.5 0.5 0.5 0.5
0.5 0.5 0.5 0.5 0.5 0.5 0.5 0.5 0.5 0.5 0.5 0.5 0.5 0.5 0.5 0.5 0.5 0.5
0.5 0.5 0.5 0.5 0.5 0.5 0.5 0.5 0.5 0.5 0.5 0.5 0.5 0.5 0.5 0.5 0.5 0.5
0.5 0.5 0.5 0.5 0.5 0.5 0.5 0.5 0.5 0.5
##$SPOFFS= (0..63)
0 0 0 0 0 0 0 0 0 0 0 0 0 0 0 0 0 0 0 0 0 0 0 0 0 0 0 0 0 0 0 0 0 0 0 0
0 0 0 0 0 0 0 0 0 0 0 0 0 0 0 0 0 0 0 0 0 0 0 0 0 0 0 0
##$SPPEX= (0..63)
0 0 0 0 0 0 0 0 0 0 0 0 0 0 0 0 0 0 0 0 0 0 0 0 0 0 0 0 0 0 0 0 0 0 0 0
0 0 0 0 0 0 0 0 0 0 0 0 0 0 0 0 0 0 0 0 0 0 0 0 0 0 0 0
##$SPW= (0..63)
0 0 0 0 0 0 0 0 0 0 0 0 0 0 0 0 0 0 0 0 0 0 0 0 0 0 0 0 0 0 0 0 0 0 0 0
0 0 0 0 0 0 0 0 0 0 0 0 0 0 0 0 0 0 0 0 0 0 0 0 0 0 0 0
##$SUBNAM= (0..9)
<""> <""> <""> <""> <""> <""> <""> <""> <""> <"">
##$SW= 197.183917334495
##$SWIBOX= (0..19)
0 1 2 0 0 0 0 0 0 0 0 0 0 0 0 0 0 0 0 0
##$SW_h= 29761.9047619048
##$SWfinal= 0
##$SigLockShift= 0
##$TD= 262144
##$TD0= 1
##$TD_INDIRECT= (0..7)
0 0 0 0 0 0 0 0
##$TDav= 0
##$TE= 298.2
##$TE1= 300
##$TE2= 300
##$TE3= 300
##$TE4= 300
##$TEG= 300
##$TE_MAGNET= 300
##$TE_PIDX= 0
##$TE_STAB= (0..9)
0 0 0 0 0 0 0 0 0 0
##$TL= (0..7)
0 120 120 120 120 120 120 120
##$TOTROT= (0..63)
0 0 0 0 0 0 0 0 0 0 0 0 0 0 0 0 0 0 0 0 0 0 0 0 0 0 0 0 0 0 0 0 0 0 0 0
0 0 0 0 0 0 0 0 0 0 0 0 0 0 0 0 0 0 0 0 0 0 0 0 0 0 0 0
##$TUBE_TYPE= <>
##$USERA1= <user>
##$USERA2= <user>
##$USERA3= <user>
##$USERA4= <user>
##$USERA5= <user>
##$V9= 5
##$VALIDCODE= 0
##$VALIST= <valist>
##$VCLIST= <CCCCCCCCCCCCCCC>
##$VDLIST= <DDDDDDDDDDDDDDD>
##$VPLIST= <PPPPPPPPPPPPPPP>
##$VTLIST= <TTTTTTTTTTTTTTT>
##$WBST= 1024
##$WBSW= 4
##$XGAIN= (0..3)
0 0 0 0
##$XL= 0
##$YL= 0
##$YMAX_a= 530515
##$YMIN_a= -468013
##$ZGOPTNS= <>
##$ZL1= 120
##$ZL2= 120
##$ZL3= 120
##$ZL4= 120
##$scaledByNS= no
##$scaledByRG= no
##$ABSF1= 193.6013
##$ABSF2= -3.601349
##$ABSG= 5
##$ABSL= 3
##$ALPHA= 0
##$AQORDER= 0
##$ASSFAC= 0
##$ASSFACI= 0
##$ASSFACX= 0
##$ASSWID= 0
##$AUNMP= <proc_no>
##$AXLEFT= 0
##$AXNAME= <>
##$AXNUC= <13C>
##$AXRIGHT= 0
##$AXTYPE= 0
##$AXUNIT= <>
##$AZFE= 0.1
##$AZFW= 0.5
##$BCFW= 0
##$BC_mod= 0
##$BYTORDP= 0
##$COROFFS= 0
##$CY= 15
##$DATMOD= 1
##$DC= 0
##$DFILT= <>
##$DTYPP= 0
##$ERETIC= no
##$F1P= 0
##$F2P= 0
##$FCOR= 0.5
##$FTSIZE= 65536
##$FT_mod= 6
##$GAMMA= 0
##$GB= 0
##$INTBC= 1
##$INTSCL= 1
##$ISEN= 30
##$LB= 2
##$LEV0= 0
##$LPBIN= 0
##$MAXI= 10000
##$MC2= 0
##$MEAN= 0
##$ME_mod= 0
##$MI= 0
##$MddCEXP= no
##$MddCT_SP= no
##$MddF180= no
##$MddLAMBDA= 0
##$MddMEMORY= 0
##$MddMERGE= 0
##$MddNCOMP= 0
##$MddNITER= 0
##$MddNOISE= 0
##$MddPHASE= 0
##$MddSEED= 0
##$MddSRSIZE= 0
##$Mdd_CsALG= 0
##$Mdd_CsLAMBDA= 0
##$Mdd_CsNITER= 0
##$Mdd_CsNORM= 0
##$Mdd_CsVE= no
##$Mdd_CsZF= 0
##$Mdd_LrLAMBDA= 0
##$Mdd_LrNITER= 0
##$Mdd_LrRANK= 0
##$Mdd_LrZF= 0
##$Mdd_mod= 0
##$NCOEF= 0
##$NC_proc= -5
##$NLEV= 6
##$NOISF1= 0
##$NOISF2= 0
##$NSP= 0
##$NTH_PI= 0
##$NZP= 0
##$OFFSET= 193.6013
##$PC= 1.4
##$PHC0= 3.631109
##$PHC1= -62.86203
##$PH_mod= 1
##$PKNL= yes
##$PPARMOD= 0
##$PPDIAG= 0
##$PPIPTYP= 0
##$PPMPNUM= 2147483647
##$PPRESOL= 1
##$PSCAL= 0
##$PSIGN= 0
##$PYNMP= <proc.py>
##$RDF1= 0
##$RDF2= 0
##$RDFWHM= 0
##$RDINT= 0
##$RDPOS= 0
##$REVERSE= no
##$SF= 150.92041
##$SI= 65536
##$SIGF1= 0
##$SIGF2= 0
##$SINO= 0
##$SIOLD= 65536
##$SPECTYP= <C13>
##$SREF_mod= 1
##$SREGLST= <1H.CDCl3>
##$SSB= 0
##$STSI= 65536
##$STSR= 0
##$SW_p= 29761.9047619048
##$SYMM= 0
##$S_DEV= 0
##$TDeff= 131072
##$TDoff= 0
##$TI= <>
##$TILT= no
##$TM1= 0
##$TM2= 0
##$TOPLEV= 0
##$USERP1= <>
##$USERP2= <>
##$USERP3= <>
##$USERP4= <>
##$USERP5= <>
##$WDW= 1
##$XDIM= 65536
##$YMAX_p= 282581685
##$YMIN_p= -2487537
##$CURPLOT= <printer>
##$CURPRIN= <$printer>
##$DFORMAT= <normdp>
##$LAYOUT= <+/layouts.ATP/1D.xwp>
##$LFORMAT= <normlp>
##$PFORMAT= <normpl>
$$ End of Bruker specific parameters
$$ ---------------------------------
##XUNITS= HZ
##YUNITS= ARBITRARY UNITS
##XFACTOR= 0.45413062686012
##YFACTOR= 1
##DELTAX= -0.45413062686012
##NPOINTS= 65536
##FIRSTX= 29761.4506312779
##FIRSTY= 661499
##LASTX= 0
##MAXY= 282581685
##MINY= -2487537
##XYDATA= (X++(Y..Y))
65535F61499J64665J00875k6880o8957p9747j78840k43995A18617m5597R7004
65525A70024J47422J29426j350m5869r2360j28755n5049J0058N766J6834K4553
65514A80700n743o4824b0961j58959r8889Q642O5258J00724C7078R2828P8184
65503B08090R0669J5890J2589J00065J15444m6312j74381j10270A03020D0998
65492I8374P2883O0368K7950l1413m6495l866M9108P1005J06814J42775J04268
65481F51771o54j25626j58853p0515L366m2784p7132F9136f7995j05659j31172
65470c04826j34313p8471n9304n1492k7881L3968Q3538J02310J03557J17557N0996
65459a64361M8851d6672n3900j52095p3659L1470J03357R1481M5523K714g964
65447A12216R8326J9314L4574K21832K88231J48814J6856J1405n4248j83194j82885
65436E31241j19050j61820D3387h3774r2002q6289k997O9264K8259r7435m7532
65425c12506J51378A13991J85300l4098I3745i1321j30772k9995g0416B67203
65414D75031P4242J30698J86866J42109K1081p1187m6996M0631K3017n4853q8006
65403H32633n5458n4875j24496j81193j52966m5781n6137C7384m910J91231J68334
65392C92039o272m9119L569J7320K7251k5665q2031k5240J1785o4068G1126a14451
65379c82424k04269L1941K66598E1857K49858P3883j13608F369b35789j08878
65369c44667M2873J47365f3964j1453p8561p6413l6879k7044M8165J10887f243
65357A78808J54717K1493j1060J4589j4483q8262H6919e3001A1634K44506J81928
65346D38068N9998R9511J43826N5166j9284l2684p1862j31359r7140J7525J7221
65335D78986o8097j12562o8771N4893J44144J876q9209J132l4582A53419f0019
65323c49842l25591k73567q7046J68863L41359a52048A00921J23566J11721J53862
65313D90070J17321l2426j36329r1297l3633Q4589J89263R5300K8395J00484Q8660
65302I00397O9327O2423P047j61051l06780k47084j43736m5909J00828J88131
65292D23593K15713J19437q3180j56434j12236o7605J4239N5310O8895L218O167
65281D87117P4758J6936o9224p7613l2038M160J2905O9189J22070J44726J37792
65270H90778Q9472k3488j13392n8594O1953J29476n0091j48382r1952p9154r5548
65259E11078J247J30276J47360J39758M8094m9420r4515l7704j04374k26866j88119
65248B76815j36323I070c3000D0773R2694P2773O339j8662L6647O526j07655f178
65235f5302g300F3105P3523J15890K24279L02464K20214J26125m766q9345l9896
65224I91593o879n3132n5146n5743j31890l17292F446h8719G0894J61934J19842
65213C52670J04416K2373p5225j62514F4031b9904j7989F2555K43521K48788K61536
65202H16400K65431K46388J93099m6226k07231j88679p0919K7819q6209k07676
65192G42197j63786l2745J34673K22005R2581k23906l67048j30527K0254lP6411
65181C70106K2120r4109n2605m2457n4846l070O0860J84883J46546l5942n5413
65170D46073j4832r3575A34123d9437k1980E4166J68529J35977J002j1434O00
[...]
3099c09088K0474l9701L5664J42119O5718c8385A05957J2945a18509j91839L8795
3088b71553K085q7874J3019J49069N3925j10001j55515k26709k00654r4680l3710
3077i62598O2400M5913j7219K4979M0002m5685j0975J87631K36943J01689j1065
3066c47985k353o7030j58334l9610Q1673J08376M5625K4761N1957m6118j46616
3055d95654k1488R6962p697o7937N6373a94941A24654L88653M00710J86741l4725
3044A066033k1294Q0261K0335r6304k19321C69533a54051k96919o0130J10964
3034d00136J01682N9162J04469C4326J66166J36026P700q5561k7715n854p8386
3023A46702E2167Q7978K02326K24298K64869J82628J15743Q9740q122j05398j36115
3012I70114p0704J1592J9505j2712m6861m1550N9392k3431j12597l7632k4068
3001F91048r1989j37664A84779a98444l22571j59115N1240K03488a96295A3693
2990A93882K2642H7892d2191n2693k7722j29165o9295Q3665e6775A29925M1913
2979A71838D3928f9342j5433G1828J28671L003o7481B2550i2889j37430j35132
2968c65451k7790K1392J01999e0495D0449d5845p7829p5760k6498R0001f0729
2956D1350K27430J51177q0938A32796h9119k8181I9761L75150M10041K62087L5580
2945A182619k58340m15626A33616a09633j44038J5393h9594d1178r9702j30972
2935b71852n1132k2492J19794c9024r5077k67864k00806j08864k9583q2361k39678
2924a063257j53652J45499J75542J70736K28588p105k49458j56502J3603K1400
2914h74606J4398p469n3837j00198j67018k29821j91304j07408N9279K81996M16168
2903i59820L42980J50282o1714k3931J72365f6093D27587L84015o1370C60754
2892a516l6591A04616R3158m5618h250j91544j96795k45026j97244p8707r794
2881i27360P7318M3885j39075p8214K10568L71380a18588H0471j5796h9998b8999
2869B76322K38148J51235Q7820n8682j97600k42823A5959c04166k81060o0383
2859f45609P8437N2057P6101J13112k6822j62410n5903J12623J69890i5432C5254
2847I7301J00220J4010b409k94172j60674j8245l3656j04426R4802a77825A63992
2835C39617K3100j5670p7277j23208J5861J26229J31937J60835K09891J17938
2825I09253j94279C28484c7423k44719j52838j57940n2061J52196K40229B5233
2814A59020E1571a26299m3182F473L46623K85508m4017k32234j44976D2729a89398
2802b25368a04781b1328A0920A20Q437O5648N46g4316o5652f0263m523k33731
2790b98517l24653n9853L03137J53046j89759k59709k39454k04633m0607J42499
2780a018503J82913K35158K48177J16979N735r2851j25050M9372c4879D89287
2769H84764J61658n1016j03054K2950N5342n6145j22148j21995l3264J60345J81942
2758I79379r6319m15766i791l91279l30453l66650l73784k47926J0063L21815
2748a388005L69287Q8973j62951j68704M5216K18672J68319R038k54897k38628
2738a313680o0188K3708J48069K64885J92197j2587j52271r7002J20669J94898
2728f91302J64707J76534J56559e7951d857E3354Q6621J05586K70579J85939r7263
2717F04816j97910j50456G6916b68450l22406j34917J48068b48789f7556M060
2707f3496Q710B8124P2962J84308M09176K86635p6243k06802k15130j71275l1516
2696B80239J308A38692b34217m60586l35536N0417L22177K11471n3089k35391
2686g34754j26100J67556c02114A61441K18963j33861E673b78758k91188j39644
2676g09590p3086j09899k2648J44000L39963e7800A32774M1204R6478L08508L22757
2665I01721O7160k05381o8001K41066K41797j2541k04592k02694j94795j74411
2655C89329Q5379K39852K3051k73386A52744a84832l54406j37833J07165Q6453
2645d83453j5396J34190e1670A91837R4500Q32R3982J23930O996j21346j68934
2634B21797H0706b6125l5804F5077J48538C0435c82222k59886M612J40444Q3887
2623d13165l7306j5987J24039J26328R2775O0289J6997j0643j36826k14980j59102
2612e67581q6749M1455K44249h6773L6143j91825k48504j81680k0735Q593j5446
2601g00227N1962J73684J90814O2775Q4840c5704E9377J75393K74829K57468J8418
2590G85485k04440A83371a58128p5274m8152j50532l5840N0271O9456N4065n8782
2579c52916j36745o6824N111N8781J8221Q058N0032L8447J66640F161L7220b1022
2566C8122J48821j7402b32821n63610l54482N454J97730J48389R5457J39517M2915
2555e21451o7694O0888K43463h7101L3402o7684k43334m10427l49456k64954j56765
2544a546319P7569K93600K76872P2267Q8036J57586N6747q5439M962J02669q0461
2533e81911k66073k04747o0907O8734J08943P9798P0808M9207l9539r9502M2142
2522h33047K33686K77483a58340Q573f7218A23458J91468J91272O8112j49577
2512D24733k00888n8495J08058J21165o4900H2574e0295D0507J63318Q4078m832
2501B83071l6468j13983h4618l22714m12046m27954l54577n7577J72049J91903
2491a295534J93194L25449L66897J59033J0501Q7090a7080A19880J93448K23681
2481E37009J16419m6566p7810p8541j34094o3881Q0691j867j16841K019P5549
2470B92087L0858K5235Q712j00959j00622O1368P7192L5381J18770J82134O5783
2459F95939j37658j79134j14644A31842D9907j6134c4068j29842j64646r8753
2449d27309K4532J63281i1422M769q8381K3863D5703J36232o7844i8859k23501
2438c22360j19508q0952n9891l6393J418J05025J18972J28535O5413j34812k04847
2427e39400j99835o1943K15004a34396B94297K61755K01208J61033J16414L4495
2417A069202j33946l67821E3884c47142j00968J62259g3478A6719n880c0312m9721
2406h0033j07046j16819k5326L0578K8002M3666i5929A00838K04791J56545N4406
2395E16580j04317j41925q683N3173L5859A73517a76869j88214J12758J25024
2385a27301j3065d8499A34778J50976J14990M6855J4925n4354j11397H5304a38986
2373c34248j43168J6057J21727a27912A12303K33287K51529K48147N6108o3621
2363H37753M5108J6789j29848j8537Q6450N7659O7630l8663j16064r4413r7231
2352F16633p0886m3936n0039Q9870Q2667p2363k65910a70940m05000j26185J74881
2341e27244b43426e3088H2669K04266K16097L5414j96749C3216c79017m11219
2331g90236j63149J68365L34504a81499f9742o3915j22176j29319K718J79057
2321b03377c7808j26o9634K9972b9333j20815k86325j84266L3968P5599J8551
2310d92621l5102k6789Q1995Q1714J3765J62521A3356K48228L33340K98446K47232
2299A140602J96878J69524J13445o7234k57941l04522l84038A31259a90462Q058
2289a82404A07100K62244R5369k7000k00220a50899k94048N9191a26159A46658
2278B79435j03932b4749j52196j02902O3446h4535A3405J03916l2962C7224J33246
2267A70470J35258q5928H9362j8090L1000J18882J85292J27436J37753K86764
2257I58399K80412o9282k90316j82004R218j6037j43055j72143j45329j05169
2247A24694E538a73445k34568j64562j08562o3136K4637K30715g4456D03436M68760
2236H72196J71308j70444k63579k86722D9840b36730j24040a71394a3087l1546
2226d4633k26278l38619k10174O5356J94942Q0628o9788k29533k42711o6242J91281
2215h95771L90126K43413k5280j37944j52870j96745j67424J12833L88229a8008
2204A52312E8510a73880k41496m7245J55986J39801c399A92112J5941F6645h603
2192e6600k55676m59257l49238j02290N8234K46799M34006a16573H164J9862l72
2181B7654d7576j48353j02580q124j2432n1870M4915a38990a7875j48382k53043
2170d19300j44850m7480J26688a61888B27392L29994J70261K1880L348r6962C27239
2158a33110k97119j62792j95879j05638J58957J70554K5344j12797k46409j28491
2148a027380J43837K68742K77264R7111q1814R295a18264B65044K71809N3226
2138E90079j09762j78936j34293a3531l65798m23583k35692o2235N1370R2002
2128i57467J39012K31549a88339C01436L35490J77619M3751j02535k46729A57755
2117b12640l26620j58990j5912J76052K40944K5430k54876k39316o7456j14599
2107i47983j71040O6116L02076L05114b15750J03803m2288o4548n2450L400j288
2096b69121m6133N2104a28416I0455L00895J73761p1511j79663r5434q941J906
2085B11468l9399m8810M7606L4297E184c46303j31444K02957e638A52638P0017
2074B22655J18272L6031j24989F7855a8395A8984J19990N0608q8626a7341j44882
2063a62223j02804o6999Q063J59501I3549J38349A08884i5002j28596q8022j50089
2052d61709k46806k04772j52062q4084J48869J63628l4451J22736c39329b9846
2041h6118k41643k05744m9496P4649J62897k436k67532l18117k21274j7899K01875
2030i70838M36442a03654C2434c3555j55509k16734j62409r0061j18658o9282
2020h46208l1575j6180j8223O4127K28258J24192q0698m6928Q0993J20429J42073
2009b79740a18916K9736r0968n1279Q5291E0014J89123J7763j18363d3338j41415
1998a84753k7107P1994d6068B4330Q3645K382C0288E49L6168j234I043i174r0011
1985i9185l7577K141q7406k32477k25039l0691J08966K8751k1782n1593n9661
1974g05553P3972K64162a41922N9750c5176H4656J52312O3347L3411L0286j27275
1963B36737a1837p5659E7639J34470p2447j7688L18446M59962L37899R8589k16775
1952A100095m23644l20133j18932R7540J73278L0772k4131P0001J53446J93992
1942I32284K26797J19019j04191k21777k04712j42501j4606J07169J00749N3088
1932H51319k330o4705j41253j24604P3703K51539K53030K16549J68528Q7160n5526
1921A513410p9197j14720k77485l38095j38285J17704R3729j75671k73964A22126
1910E5047O3659k3848c4278o4032B7839J45591Q7264P9785Q2366J46978J82058
1899G51881J14369l6229r5096r6882j22954j37770n7387K7348m1915j06003l1734
1888A67628M1414n7892o7564J52277K25496N6404o0961k1002Q7418J11068J36445
1877G70731K52364L14921K09904O846k83822n10989B93788A2272i1787L8362A1316
1865I091a2755o0184L3646A11771J33951O3014M3791n605r2067A19495p416J07863
1853B19942J7886q1229D29f178A30805Q8739P9860P3710j3855m6523O9942K18118
1841F00796J24150j3306j11097j10366j00231j82247a231j06620K5563D5906L36988
1830C82894M38827L62328J73508P1242N5113q7541j79394k27097k04707j14576
1820F70597j42395k07372A3065b75590j33482M5357J57570P6567j9735P2503C8852
1808B29359J10851j18711B4020f4004A7363J30545O8117N3886M2790J01152J28942
1797E42795J8015m6370J63156L27887J42186q1666j72395j51332q7092j83200
1787D71984k20089n7255O1156M0702j5918j7356m1303C0737b21210k34856k06968
1776f63034m0020R4591K07211b3650C85830J18980k04465j25890R596J42246K48953
1765E75250J93303Q279q2879p1915j03440r2630j05998A43822i8905k02225O8785
1754b32345F6508J49003G8688g5104k9414A151K07803K39335J52781n5859q9899
1743D55312J75106K39103q95k03213k19622B13139h3655k21521j06384r477m65
1732d21502L4620a81601G7436J34849j5780n181J09707J19622O8721L2274O0156
1721E81804L1608m5064o2173k4204Q6571K07537J74009J8734p9806m1319m2815
1710H04882K3114Q8395R1953P5800j6863r9063j06487n4735r5950j62277k50550
1699B98219B9919g3701o3739q0978m3035K6089h2720A3684a42735k14598m5008
1688d02341J54251b3161A61365J77584N8812L0941R8104M4784N593R938k7950
1677E59171j48549E8070c43541j31293K21902A01956L06927K08410m5634B33759
1666g9980n3286D7400L77527L33820J89023P5870r9395j64502p7351K5912N3471
1655G61775j6623j00822j18150j58597A37616h0301L3144B37260K36296q4039
1645C89517F8361a19038J5117M1486E7774J64258O668j00344g3468k22975l7147
1634c33590J25173P8481L0491b2767j0878q1326k835N6041A1291P650N8322J59735
1622B36998L1853A16871b14458l76498k02099K2231K52367a10992B45429J39797
1612C85226O9897K25112L66895L09500O6520j12273j15958p8952j31502k55836
1602G28629B91432h7550j29312K4081j9405J563P3807d0982B43408K85483O9792
1591E98683N2933J24550J16042L755j22568j59899Q401K09813L23884L55878J66500
1580A677972p4863k22094l55467k50983m3079l3521j40726k23370A31477l1748
1570I9729Q0194M3079L7114N8946N4429J25143K13616J68823M7619p1761j99586
1559F57345j28697L7961K9436o5721p8763o2689l846K4580k7040K4896M9493j17668
1547C39287A17299c3001p1086d9656A12359J57158O8099Q3336R5272J36224R7975
1536G50423O7422L9131j23444j52275m4396J3728q0707B25747a1486j84400j88105
1525c83991o0266J03702e1174C84184L20276J84397J69757J26747P5921o4446
1515A196836j68393j10823q6847j43883j64243m6374j45471e0861n19547l14348
1505h84756J07296L48960d4273B59493J80471j9744j54839A6895b91278j51546
1495d42824J36119A01356M12216K81683J33453J03808j1630k12582k71291j94183
1485C42830m0474Q9875J73516R2502m6839k42402A0481b37858q8156r0764o9475
1474d86253j4244K5173J97649h6463j2771m2911e8393A71919L54992K98729J55067
1463I80707L4333l1175k0316j1844p302K7638l5989j50968k73893A83278a75937
1451e02425j19229O7270P7955k1112Q5867J70200j06055l69568l12557p0997J55953
1440i44698K32583K32101b32541b7512D9749J9779J89514L66062K84146j4615
1430H94635k23617l16079A22535m8324j7303j6366N0843M8634K7210P8679P0124
1419C16032q8858G2008f1258m0376l1113L706A8691J93102M2213j08692d6895
1407b49681l5457J14993F0845K97608P7152k13757b2373n2001I4882J67065O0007
1396C21954N6805M2111q1390D6032c13589k48938j43482o6771J21267K83618a19642
1384F065e1363j76136j4857G7978M05069K82531K17472Q2844j34016k00346k9369
1373G02163J63563J31144o0943j58434j32997K2902J56508K34761L88063M20365
1363A867095K13635m2598j44322j72219l36704n00996l69742m2562J60578P3943
1353G06108k37151A5813c13223o1866L2121M4711O7338i6802A61845K98684R3694
1342E54223j13835j30068l4959N5091O8456P8930J46232j3344k58662G5763a14554
1330a86812R0714I1902J08966J01116J90481J73446L2803j70953k54877D6483
1319a31484p4040J9874O892L878K5084l7773P99Q8558H764K14551K13692Q903
1307D45910N4918K10890K06948J88057m2469l15227l67868A09971M587J97559
1297C12117L31230L46381J06839j25039j68404j12894n2319m3064k7787L0942
1287E98002O4574P2144N1958L035m0272m7285j01703j39187k3213P4379R3969
1276F06401J16892P3590M8436R9763P8575m8166k16152l52696c882m35251k77105
1265g16238N7849b50092B61479K48779l3067k0810J20837J41162Q2893P9915N4105
1254I35293k8030p5180j2294L5083K8875J13691K31784K15379K10976K09318m7095
1243A817800k67696k04153j38317k53915k02388l7847L563p2587j05824L261J05702
1232F47599Q1181j1899L4062P3213m7329m5853L9550Q1460p924k56770A98006
1220b3262G9825J88845J9426m2341J43506L70666L50728m1462l72280B37612a25924
1208b95499p1980n5185K4357N1502j29863j46846j6040M6892O9421R9172R8083
1197c25986J12802d1649I6971M1968k3500D1657a21388p6803R3953G3787K63735
1186C37522K38795P2499j09927j15996p10P5390J25041N9716m3463j25499o3192
1175D50176J5685n6734j46067D1805e8521B9962J66130R8639P479K9775Q4896
1164D16881P7043n6423A99603B310a25485k21030k88397k12061n8987J40579L41088
1153d24293a60187g6153E2724J51207m0828e1316j32965N7036A11211K52445Q5578
1142D49234Q6811K22650K98428K50627Q7585j47684k97325k36864l9322R6647
1132G70787J12111K3630r3965j34738j68303j92001j53521D6056j7700O0120M6522
1121A34998J09836K69412L46294J99128M006K9901K56139K76233J25978j52106
1111A599819l84491m58841C50990j71899N9877J35006K2806J0070N6908J72872
1101F36630K57336J34478j40043l03012k20267p1809L646O0542K2186j22476B5242
1089a72509m8268i6577A21525K32406K49267J73342N3203J6633N9485O3389J06165
1078A075415J97788Q5920j34219k76566k00615q2127m5136J37504L06492J96453
1068A260909J59604K82420J14652k58389n70201B90702a33310j6923c5754E0163
1057A67691P5684o1100G9688j9660P5363J5757o5364k6451J0248j3514B3275I507
1044E2215R9219J64596K43005J92272N4042n0674j26029j69641j62607O3327J87101
1033E46826P2881j75046A69341F0105J0191L2187m4645i2065j50779o0099L1834
1022b71109L7630M8984h4188c1510j06479o4165h5569A16571Q8583o9094D0926
1010a18602j03A47529L85567M37602L52050K10375R1881o1440r4626J21615K14108
999A804661k4086k70289k37796j33338j19096j42693k00840k83274j54131p1906
989A67212G8664Q3856L26849L42990J67007n5029j54215l11591A12277k9046K52619
978C35850K01327Q6398L50Q4761K61502K96341K29162J65335Q6906J0968N4843
967A813743J05790k3778k96457m04148k37238j00039P475J70043J16782r2645
957A059528j02689N907m6081k76808k71102l8230l9176j40957O615K41552K39651
946F38210M2651j29398k51356q8101K12231L12450K38119J30795m2224j53236
936I10141r0278k7902K3649M0905Q6406P0160r0686j52731l2239K0594k8490k34361
924D95168E464e17697m05827k33947R962J70115J33483O5882J57065J82460J71258
913b67246i4591B33299L59161N119k17947j59634A00184j6183J17586K1802k6229
902A97160O0652J22355K3636j67206r9953M6731K232D9160a02935j11757r2148
891c06840o1176L7859a58403D1980M8004B6059M795J67271J85728j0800p2044
880C01009L1979R6460O9006L6844n369q6925p2197p172m9428j25597a2658k34254
868b46912k51346j58148K1227J45948J75380a37270K2240m3794j0056L0270L1399
857a07211L2762J6408R161C4845J50189J4686b6339k57286j30014J8965a28102
845B57662K10361n5865j67545A06168j0768J64570K37611J70730L6423l5552j21557
834E47625j13915m7313M3191K67885L22885O8054p9315o71J40039K46838J64231
823A559534J7972j59575m08540m32162k64686j29875J6085J41536J05178J14509
813E59976K11260J41428j14527k30128j48569j52677H9252b3328M193A00587R5711
802A96298M0947j1184H9621a26540j66798J7674J23469G2521K56999J86715J47139
791F63374R3923J06466J49035J20829N3184k0727j53598j71113L7833K31773L37583
780A448562K72465J14386j28816k42702j97491j16931J00874J55523l0981m2855
770A332034O9584J6990M1457P1101o0123j31041j38742j21915l2098l9459j25578
759H82210j79609k27238k17835H6556A8113K01596M35361L61689R4271j59643
749I51387j48735K2057J34107J78774K23566Q9220j28423k82930l17185j65382
739E56456l1645J9748K3503n3371m2592m143j8273j22379A31212a14274l18317
728d32591k04596R0033J77228J73007c4842A03260J18107Q8488L6803J4879O3017
717D24554P3653k0649j21126j22076C6499b14312k10202j34487q1812n1338M452
706f87699K01224e9431C79599K01959p2474k22953B7330b43983j33382Q3983h8780
694A72490K25257J02983O0671L1004P342O2257J0685j24563o4218M0934k1994
683E02848k01747A13265M1610L19047M60476L68285K89674K55916J60835k0047
673A989061k48269k56860j34327p8009l1171m8204j62866k36354j92044o6528
663E34429O9612Q1551J1544L3205R1154J88087L24317L45026R0563j89531k25791
652A354166k70818l09683j80739l2372j0146k8022j8130n6076L5982K14038J70872
641H69072n7866j56852q8632m1850m9032l5114N5860J60731K41105L06054J21668
630A325144j38686j62793R247O4525r3505j44936q7451r4503j83098j83539r4291
619B16114q5718a8203k10337p8663J51257e1866b1555D2538K4664A7928a21250
607b73170m464M8320K2977O8049J8134r4147q2372N3690Q2142e3482A35257K07631
595C42888J23904N7487n0579N2284J95058L0919j47054j22139j5065q8379A37805
583a48501j44887L0945a09141E2284J15238J03182J34782P0992n455o4165j59789
572B47069I9023D6075c753q3333j20824q7344O3828b808B79860K63671J62264
561G05795j240n0658N8405N1126j41262j18363n0145j94329G2399P2592K24128
550C69119J12109N1819Q7979R0515j0423r5263j11408j68817A50132m5390L6894
539A41636j5370k269J22349K36864L06000K15888Q0425P2442O8925m0348j70140
528A016402j19742J07154K27971J25385r6666l01974l20816j90462r5302M9673
518D01623J00670p8709j23634n9468M3088R8030k8917j38607o2589N2800J33490
507C37777J70422J17474n8680k59379A8213g6475E4533K74659L52072K54905L4122
496I70291k9124K2650L0698N6146L0297j3539J0069j8161l0113N2226N7301Q6805
484A225546P6788n5140k52120l44401l21280A42423F8224J04065J84778M0438
474C97505J9756J52726K52666K44588J96945J31110n308p7535o7418%J03013O5390
462A413438j18051k64580k48866j24622L0415N1205m943N4849J88738J90940N4967
451A223490j06214r3816P0832J40945L4743q8275j91556k27540k25715j61217
441C75677n4143K4277N8206M0593q6056A55305e16j46933n8094Q151M2029K2739
429a32624L8717G6604K54874J62022P938M0230O9535P214Q4497K68627L44477
418A316018J95564j4214j74486k02287j93040j49853j20856r9913J7107O7137
408F41177N3329J15295J46768J49972J45832K9132q9070r5818n0183m0639p7966
397I27829j19864j48517j27507p9715j41498j08288J12319K21546R1796k6139
387F01962j3709J17696K09626K00908J54418J18211J00878M1406j30136l52062
377A049198m49802k79323n8207Q6517K12448K08275N8036j44155j96409j08163
367C78415l1532J7561N9920P4332O2287L0539j07060j02749P2356J88352J21248
356G63669K1649p9553k46809A99000j9055K05141K96796K92908J38014q5450j61542
345H65812j50177j07167J0204J00218M2567o6836j30923j92829j84151o8656J1119
334A29181Q5713R0313l8021p0179J21767K12262J56013J77089J45593j1028j01421
323H97282j11245q0861K143J28828K65353K12086J1179j38695j29717j4504j4759
312A027090o1685o6271P002L2602l9606j17394j87532k09448j35015j390P5307
301C23660J07327J35118J52050J98823J94659K16255J97231P1322k9774l6986
291A529685r2963k22359k02632N6281K22293R5628r7769k05779j73537j39414
281G69434j77100j25822p7122p7593m736J01058J04684k6347j59559A36568n1092
270H5476J50912K50786J64875L3813m437n7282K3829J99666K52505J84135J11708
259A395986J2110j29946j71916p4723J5309n1615j06300r1153q2061j0148M9609
248G55152j6899r3996j50262j63480A43667E2623L8522O6877J48539K13004J92454
237G12019K08584J53274J32922O3764j5976Q6906J81245J23850j43075l18279
227A185234k37426k8101J68634N3781l17021m09615j51473K4870o937j21751d0136
215a02933L9013M425J8325J1412D4770K34684K65270K40581K24095J31770O8941
204A210111N3991J4341n082o4051j96341j90442j34818k14371A40569b10650k25091
193d35741j2551J24344J57540b1800F9905B1550a59470j15884J6591i0694A30954
181B87759K7947q8360F2920a13638j64449j75542j45810k2896J03528O4872l9979
170d93914m1460J20662a68816b7552p0987k15797j62733O2865a29754B24673K53717
159D78390J53940P9301p716q7482j35920j80299A25759b5522l1591A73344M05463
148E78807L27383J63184M0254j16686j36669j9894J03024J25326j7828j37181
138I09720o0639J19110J44452o0694k50309k14192n0905L250j0320J2561J29173
127F71207J93825M0041j27540j76665j78439j23596Q25M4461M9691J25564K36239
116G55613K25360Q6124j8791j4458L2359J8534N8419K12590K06056n4619k52918
105A254269k54077k14860j59540j74544j45677j0239J04330K47680K48200J37556
95A033098L7413r9637j28503L8090O6148n8946o2710M9841Q1117Q3516Q3367M1679
83A164473n4034q1085j5122K4052L2286J57583J92737J30467Q650j30083l9972
72A389952J01037n9460l68632m65194k55498j6360O7104J21363K01352J71456
62H87120K6259o9128k3353Q3853R4880k1054j28302r5412N5474J30901O8983l2021
50I78200o7054k5516k3727j31118k25843k19274k9368J53183J06020m0226o9145
39D06132L4829J46280J91106J45615Q9277L9774m092K9107k3413j10600o6485
28H77530j23899k16147j03879J42546K72763K06452P9160l304r0069k34305k66701
17E40147j68913q7869l9625n348K1713N1553N1289M0836Q4398J21471L7629p5592
5E71689n2570Q3183K07923K75448J43275
0A228948
##END=
