##TITLE=H,H COSYgp BBO
##JCAMPDX= 6.0         $$ Bruker NMR JCAMP-DX V2.0
##DATA TYPE= nD NMR SPECTRUM
##DATA CLASS= NTUPLES
##NUM DIM= 2
##ORIGIN= Bruker BioSpin GmbH
##OWNER= NMR_mess
##LONG DATE= 2016/12/02 14:10:13+0000
$$ 1.90.2.4 TopSpin 3.6.0
$$ 2021-05-17 11:05:35.023 +0200  nes@nmr-nesnote2
$$ Compression mode = diff/dup
##.OBSERVE FREQUENCY= 600.20138046
##.OBSERVE NUCLEUS= ^1H
##.ACQUISITION MODE= SIMULTANEOUS (DQD)
##.ACQUISITION SCHEME= NOT PHASE SENSITIVE
##.AVERAGES= 2
##.DIGITISER RES= 23
##SPECTROMETER/DATA SYSTEM= spect
##.PULSE SEQUENCE= cosygpqf
##.SOLVENT NAME= DMSO
##.SHIFT REFERENCE= INTERNAL, DMSO, 1, 5.150327
##AUDIT TRAIL= $$ (NUMBER, WHEN, WHO, WHERE, PROCESS, VERSION, WHAT)
$$ ##TITLE= Audit trail, TopSpin 3.6.0
$$ ##JCAMPDX= 5.01
$$ ##ORIGIN= Bruker BioSpin GmbH
$$ ##OWNER= nes
$$ $$ C:\Bruker\TopSpin3.6.0\data\luc\nmr/Displayer_2216-51-5_kombi/5/pdata/1/auditp.txt
$$ ##AUDIT TRAIL=  $$ (NUMBER, WHEN, WHO, WHERE, PROCESS, VERSION, WHAT)
(   1,<2016-12-02 15:17:58.276 +0100>,<NMR_mess>,<av600.nmr.uni-koeln.de>,<go>,<TOPSPIN 2.1>,
      <created by zg
	started at 2016-12-02 15:09:54.452 +0100,
	POWCHK disabled, PULCHK disabled,
       configuration hash MD5:
       B8 5B 0F 6D 72 6E CD E8 2C BF 54 C4 C6 7B 61 10
       data hash MD5: 2K * 128
       1C 0B 50 16 6F 3A 83 4B E3 C3 B4 4E 93 6B 09 08>)
(   2,<2021-05-17 11:02:54.085 +0200>,<nes>,<nmr-nesnote2>,<proc2d>,<TopSpin 3.6.0>,
      <Start of raw data processing
       xfb F2: SI = 1K WDW = 3 SSB = 0 FT_mod = 6 PKNL = 1 F1: SI = 512 ME_mod = 2 NCOEF = 100 WDW = 3 SSB = 0 FT_mod = 6 FCOR = 0.5 PH_mod = 2
       data hash MD5: 1K * 512
       10 61 C2 80 44 C3 BD D5 7C 01 D2 57 27 C5 97 C8>)
$$ ##END=
$$ 
$$ $$ hash MD5
$$ $$ BC 09 86 08 B7 D1 86 B2 67 50 0B 61 21 41 21 FC
##$RELAX= 
##$BRUKER FILE EXP=format.temp
$$ EDIT_PAR COMMAND FILE
$$ 
$$ DI_MODE         LONG
$$ ED_ENTRY        ACQU
$$ ORDER           FILE
$$ 
$$ 
$$ HEADER		"F2 - Acquisition Parameters"
$$ T_NAME		Date_
$$ 		TYPE	R64
$$ 		CLASS	ACQU
$$ 		SUBRANGE 0.0 50000000
$$ 		REL	"Date_=itodate(DATE)"
$$ 		INV_REL	"DATE=datetoi(Date_,DATE)"
$$ 		FORMAT	"%14.0f"
$$ 		TEXT	" "
$$ END
$$ T_NAME		Time
$$ 		TYPE	R32
$$ 		CLASS	ACQU
$$ 		SUBRANGE 0.0 1000000
$$ 		REL	"Time=itotime(DATE)"
$$ 		INV_REL	"DATE=timetoi(Time,DATE)"
$$ 		FORMAT	"%14.2f"
$$ 		TEXT	" "
$$ END
$$ NAME		INSTRUM
$$ 		TEXT	" "
$$ END
$$ NAME		PROBHD
$$ 		FORMAT	"%14.14s"
$$ 		TEXT	" "
$$ END
$$ NAME		PULPROG
$$ 		TEXT	" "
$$ END
$$ NAME		TD
$$ 		TEXT	" "
$$ END
$$ NAME		SOLVENT
$$ 		TEXT	" "
$$ END
$$ NAME		NS
$$ 		TEXT	" "
$$ END
$$ NAME		DS
$$ 		TEXT	" "
$$ END
$$ T_NAME		SWH
$$ 		TYPE	R32
$$ 		CLASS	ACQU
$$ 		SUBRANGE 0.0 1e8
$$ 		REL	"SWH=SW*SFO1"
$$ 		INV_REL "SW=SWH/SFO1"
$$ 		UNIT	"Hz"
$$ 		FORMAT	"%14.3f Hz"
$$ 		TEXT	" "
$$ END
$$ T_NAME          FIDRES
$$                 TYPE    R32
$$                 CLASS   ACQU
$$                 SUBRANGE 0.0 100000
$$                 REL     "FIDRES=SW*SFO1/TD"
$$                 INV_REL "TD = nextpow(SW*SFO1/FIDRES)"
$$ 		UNIT	"Hz"
$$ 		FORMAT	"%14.6f Hz"
$$ 		TEXT	" "
$$ END
$$ T_NAME          AQ
$$ 		TYPE	R32
$$ 		CLASS	ACQU
$$ 		SUBRANGE 0.0 1000
$$ 		REL	"AQ=aqcalc(SW,SFO1,TD,DIGTYP)"
$$ 		INV_REL	"TD=tdcalc(SW,SFO1,1.0e6*AQ,DIGTYP)"
$$ 		UNIT	"sec"
$$ 		FORMAT	"%14.7f sec"
$$ 		TEXT	" "
$$ END
$$ NAME		RG
$$ 		TEXT	" "
$$ END
$$ T_NAME          DW
$$ 		TYPE	R32
$$ 		CLASS	ACQU
$$ 		SUBRANGE 0.0 1000000
$$ 		REL	"DW=1/(2*SW*SFO1)"
$$ 		INV_REL	"SW=1000000/(2*(0.005+DW)*SFO1)"
$$ 		UNIT	"usec"
$$ 		FORMAT	"%14.3lf usec"
$$ 		TEXT	" "
$$ END
$$ NAME		DE
$$ 		FORMAT	"%14.2f usec"
$$ 		TEXT	" "
$$ END
$$ NAME		TE
$$ 		FORMAT	"%14.1f K"
$$ 		TEXT	" "
$$ END
$$ T_NAME		D0
$$ 		TYPE	R32
$$ 		CLASS	ACQU
$$ 		SUBRANGE 0.0 1e38
$$ 		REL	"D0=D[0]"
$$ 		INV_REL	"D[0]=D0"
$$ 		UNIT	"sec"
$$ 		FORMAT	"%14.8f sec"
$$ 		TEXT	" "
$$ END
$$ T_NAME		D1
$$ 		TYPE	R32
$$ 		CLASS	ACQU
$$ 		SUBRANGE 0.0 1e38
$$ 		REL	"D1=D[1]"
$$ 		INV_REL	"D[1]=D1"
$$ 		UNIT	"sec"
$$ 		FORMAT	"%14.8f sec"
$$ 		TEXT	" "
$$ END
$$ T_NAME		D13
$$ 		TYPE	R32
$$ 		CLASS	ACQU
$$ 		SUBRANGE 0.0 1e38
$$ 		REL	"D13=D[13]"
$$ 		INV_REL	"D[13]=D13"
$$ 		UNIT	"sec"
$$ 		FORMAT	"%14.8f sec"
$$ 		TEXT	" "
$$ END
$$ T_NAME		D16
$$ 		TYPE	R32
$$ 		CLASS	ACQU
$$ 		SUBRANGE 0.0 1e38
$$ 		REL	"D16=D[16]"
$$ 		INV_REL	"D[16]=D16"
$$ 		UNIT	"sec"
$$ 		FORMAT	"%14.8f sec"
$$ 		TEXT	" "
$$ END
$$ T_NAME		IN0
$$ 		TYPE	R32
$$ 		CLASS	ACQU
$$ 		SUBRANGE 0.0 1e38
$$ 		REL	"IN0=IN[0]"
$$ 		INV_REL	"IN[0]=IN0"
$$ 		UNIT	"sec"
$$ 		FORMAT	"%14.8f sec"
$$ 		TEXT	" "
$$ END
$$ HEADER		"======== CHANNEL f1 ========"
$$ NAME		NUC1
$$ 		NONEDIT
$$ 		TEXT	" "
$$ END
$$ T_NAME		P0
$$ 		TYPE	R32
$$ 		CLASS	ACQU
$$ 		SUBRANGE 0.0 1.0e10
$$ 		REL	"P0=P[0]"
$$ 		INV_REL	"P[0]=P0"
$$ 		UNIT	"usec"
$$ 		FORMAT	"%14.2f usec"
$$ 		TEXT	" "
$$ END
$$ T_NAME		P1
$$ 		TYPE	R32
$$ 		CLASS	ACQU
$$ 		SUBRANGE 0.0 1.0e10
$$ 		REL	"P1=P[1]"
$$ 		INV_REL	"P[1]=P1"
$$ 		UNIT	"usec"
$$ 		FORMAT	"%14.2f usec"
$$ 		TEXT	" "
$$ END
$$ T_NAME		PL1
$$ 		TYPE	R32
$$ 		CLASS	ACQU
$$ 		SUBRANGE -6.0 1e38
$$ 		REL	"PL1=PL[1]"
$$ 		INV_REL	"PL[1]=PL1"
$$ 		UNIT	"dB"
$$ 		FORMAT	"%14.2f dB"
$$ 		TEXT	" "
$$ END
$$ T_NAME		PL1W
$$ 		TYPE	R32
$$ 		CLASS	ACQU
$$ 		SUBRANGE -6.0 1e38
$$ 		REL	"PL1W=47*pow(10.0,(-6-PL[1])/10.0)"
$$ 		INV_REL	"PL[1]=-6-4.3425*log(PL1W/47)"
$$ 		UNIT	"no"
$$ 		FORMAT	"%14.8f W"
$$ 		TEXT	" "
$$ END
$$ NAME		SFO1
$$ 		FORMAT	"%14.7f MHz"
$$ 		TEXT	" "
$$ END
$$ HEADER		"====== GRADIENT CHANNEL ====="
$$ NAME		GPNAM1
$$ 		TEXT	" "
$$ END
$$ T_NAME		GPZ1
$$ 		TYPE	R32
$$ 		CLASS	ACQU
$$ 		SUBRANGE -100.0 100.0
$$ 		REL	"GPZ1=GPZ[1]"
$$ 		INV_REL	"GPZ[1]=GPZ1"
$$ 		UNIT	"%"
$$ 		FORMAT	"%14.2f %"
$$ 		TEXT	" "
$$ END
$$ T_NAME		P16
$$ 		TYPE	R32
$$ 		CLASS	ACQU
$$ 		SUBRANGE 0.0 1.0e10
$$ 		REL	"P16=P[16]"
$$ 		INV_REL	"P[16]=P16"
$$ 		UNIT	"usec"
$$ 		FORMAT	"%14.2f usec"
$$ 		TEXT	" "
$$ END
##$RELAX= 
##$BRUKER FILE EXP=scon2
$$ ##TITLE= Parameter file, TOPSPIN		Version 2.1
$$ ##JCAMPDX= 5.0
$$ ##DATATYPE= Parameter Values
$$ ##NPOINTS= 1	$$ modification sequence number
$$ ##ORIGIN= Bruker BioSpin GmbH
$$ ##OWNER= NMR_mess
$$ $$ 2016-12-02 15:09:54.351 +0100  NMR_mess@av600.nmr.uni-koeln.de
$$ $$ /opt/topspin/data/NMR_mess/nmr/Prakt_Gr1_MethChLA/5/scon2
$$ $$ process /opt/topspin/prog/mod/go
$$ ##$BLKTR= (0..15)
3 3 3 3 3 3 3 3 3 3 3 3 3 3 3 3
$$ ##$DE1= 4.5
$$ ##$DEADC= 0.5
$$ ##$DEPA= 4.5
$$ ##$DERX= 1.5
$$ ##$FILCOR= 0
$$ ##END=
##$RELAX= 
##$BRUKER FILE EXP=spnam2
$$ ##TITLE= /u/exp/stan/nmr/lists/wave.dexam/Gaus1.1000
$$ ##JCAMP-DX= 5.00 Bruker JCAMP library
$$ ##DATA TYPE= Shape Data
$$ ##ORIGIN= Bruker Analytik GmbH
$$ ##OWNER= <demo>
$$ ##DATE= 01/05/08
$$ ##TIME= 12:57:44
$$ ##$SHAPE_PARAMETERS= Type: Gauss ; Truncation Level: 1 
$$ ##MINX= 1.000000e+00
$$ ##MAXX= 9.999954e+01
$$ ##MINY= 0.000000e+00
$$ ##MAXY= 0.000000e+00
$$ ##$SHAPE_EXMODE= Universal
$$ ##$SHAPE_TOTROT= 9.000000e+01
$$ ##$SHAPE_BWFAC= 2.122000e+00
$$ ##$SHAPE_INTEGFAC= 4.115776e-01
$$ ##$SHAPE_MODE= 0
$$ ##NPOINTS= 1000
$$ ##XYPOINTS= (XY..XY)
$$ 1.000000e+00, 0.000000e+00
$$ 1.018591e+00, 0.000000e+00
$$ 1.037490e+00, 0.000000e+00
$$ 1.056700e+00, 0.000000e+00
$$ 1.076227e+00, 0.000000e+00
$$ 1.096073e+00, 0.000000e+00
$$ 1.116245e+00, 0.000000e+00
$$ 1.136746e+00, 0.000000e+00
$$ 1.157580e+00, 0.000000e+00
$$ 1.178753e+00, 0.000000e+00
$$ 1.200269e+00, 0.000000e+00
$$ 1.222132e+00, 0.000000e+00
$$ 1.244348e+00, 0.000000e+00
$$ 1.266921e+00, 0.000000e+00
$$ 1.289855e+00, 0.000000e+00
$$ 1.313157e+00, 0.000000e+00
$$ 1.336830e+00, 0.000000e+00
$$ 1.360879e+00, 0.000000e+00
$$ 1.385310e+00, 0.000000e+00
$$ 1.410127e+00, 0.000000e+00
$$ 1.435337e+00, 0.000000e+00
$$ 1.460942e+00, 0.000000e+00
$$ 1.486950e+00, 0.000000e+00
$$ 1.513365e+00, 0.000000e+00
$$ 1.540192e+00, 0.000000e+00
$$ 1.567437e+00, 0.000000e+00
$$ 1.595105e+00, 0.000000e+00
$$ 1.623202e+00, 0.000000e+00
$$ 1.651732e+00, 0.000000e+00
$$ 1.680702e+00, 0.000000e+00
$$ 1.710117e+00, 0.000000e+00
$$ 1.739982e+00, 0.000000e+00
$$ 1.770304e+00, 0.000000e+00
$$ 1.801088e+00, 0.000000e+00
$$ 1.832339e+00, 0.000000e+00
$$ 1.864063e+00, 0.000000e+00
$$ 1.896267e+00, 0.000000e+00
$$ 1.928956e+00, 0.000000e+00
$$ 1.962136e+00, 0.000000e+00
$$ 1.995813e+00, 0.000000e+00
$$ 2.029994e+00, 0.000000e+00
$$ 2.064683e+00, 0.000000e+00
$$ 2.099888e+00, 0.000000e+00
$$ 2.135614e+00, 0.000000e+00
$$ 2.171868e+00, 0.000000e+00
$$ 2.208655e+00, 0.000000e+00
$$ 2.245983e+00, 0.000000e+00
$$ 2.283857e+00, 0.000000e+00
$$ 2.322285e+00, 0.000000e+00
$$ 2.361271e+00, 0.000000e+00
$$ 2.400824e+00, 0.000000e+00
$$ 2.440949e+00, 0.000000e+00
$$ 2.481653e+00, 0.000000e+00
$$ 2.522943e+00, 0.000000e+00
$$ 2.564825e+00, 0.000000e+00
$$ 2.607306e+00, 0.000000e+00
$$ 2.650393e+00, 0.000000e+00
$$ 2.694092e+00, 0.000000e+00
$$ 2.738411e+00, 0.000000e+00
$$ 2.783356e+00, 0.000000e+00
$$ 2.828934e+00, 0.000000e+00
$$ 2.875152e+00, 0.000000e+00
$$ 2.922018e+00, 0.000000e+00
$$ 2.969538e+00, 0.000000e+00
$$ 3.017720e+00, 0.000000e+00
$$ 3.066570e+00, 0.000000e+00
$$ 3.116095e+00, 0.000000e+00
$$ 3.166304e+00, 0.000000e+00
$$ 3.217203e+00, 0.000000e+00
$$ 3.268799e+00, 0.000000e+00
$$ 3.321101e+00, 0.000000e+00
$$ 3.374114e+00, 0.000000e+00
$$ 3.427848e+00, 0.000000e+00
$$ 3.482308e+00, 0.000000e+00
$$ 3.537503e+00, 0.000000e+00
$$ 3.593441e+00, 0.000000e+00
$$ 3.650128e+00, 0.000000e+00
$$ 3.707572e+00, 0.000000e+00
$$ 3.765782e+00, 0.000000e+00
$$ 3.824764e+00, 0.000000e+00
$$ 3.884526e+00, 0.000000e+00
$$ 3.945077e+00, 0.000000e+00
$$ 4.006424e+00, 0.000000e+00
$$ 4.068575e+00, 0.000000e+00
$$ 4.131537e+00, 0.000000e+00
$$ 4.195318e+00, 0.000000e+00
$$ 4.259927e+00, 0.000000e+00
$$ 4.325371e+00, 0.000000e+00
$$ 4.391659e+00, 0.000000e+00
$$ 4.458798e+00, 0.000000e+00
$$ 4.526796e+00, 0.000000e+00
$$ 4.595662e+00, 0.000000e+00
$$ 4.665402e+00, 0.000000e+00
$$ 4.736027e+00, 0.000000e+00
$$ 4.807543e+00, 0.000000e+00
$$ 4.879959e+00, 0.000000e+00
$$ 4.953282e+00, 0.000000e+00
$$ 5.027522e+00, 0.000000e+00
$$ 5.102687e+00, 0.000000e+00
$$ 5.178783e+00, 0.000000e+00
$$ 5.255821e+00, 0.000000e+00
$$ 5.333808e+00, 0.000000e+00
$$ 5.412752e+00, 0.000000e+00
$$ 5.492661e+00, 0.000000e+00
$$ 5.573545e+00, 0.000000e+00
$$ 5.655411e+00, 0.000000e+00
$$ 5.738268e+00, 0.000000e+00
$$ 5.822123e+00, 0.000000e+00
$$ 5.906986e+00, 0.000000e+00
$$ 5.992865e+00, 0.000000e+00
$$ 6.079768e+00, 0.000000e+00
$$ 6.167703e+00, 0.000000e+00
$$ 6.256679e+00, 0.000000e+00
$$ 6.346705e+00, 0.000000e+00
$$ 6.437788e+00, 0.000000e+00
$$ 6.529937e+00, 0.000000e+00
$$ 6.623161e+00, 0.000000e+00
$$ 6.717468e+00, 0.000000e+00
$$ 6.812866e+00, 0.000000e+00
$$ 6.909363e+00, 0.000000e+00
$$ 7.006969e+00, 0.000000e+00
$$ 7.105692e+00, 0.000000e+00
$$ 7.205539e+00, 0.000000e+00
$$ 7.306520e+00, 0.000000e+00
$$ 7.408642e+00, 0.000000e+00
$$ 7.511914e+00, 0.000000e+00
$$ 7.616345e+00, 0.000000e+00
$$ 7.721943e+00, 0.000000e+00
$$ 7.828715e+00, 0.000000e+00
$$ 7.936671e+00, 0.000000e+00
$$ 8.045819e+00, 0.000000e+00
$$ 8.156166e+00, 0.000000e+00
$$ 8.267722e+00, 0.000000e+00
$$ 8.380494e+00, 0.000000e+00
$$ 8.494491e+00, 0.000000e+00
$$ 8.609720e+00, 0.000000e+00
$$ 8.726191e+00, 0.000000e+00
$$ 8.843911e+00, 0.000000e+00
$$ 8.962887e+00, 0.000000e+00
$$ 9.083130e+00, 0.000000e+00
$$ 9.204645e+00, 0.000000e+00
$$ 9.327442e+00, 0.000000e+00
$$ 9.451528e+00, 0.000000e+00
$$ 9.576911e+00, 0.000000e+00
$$ 9.703600e+00, 0.000000e+00
$$ 9.831601e+00, 0.000000e+00
$$ 9.960923e+00, 0.000000e+00
$$ 1.009157e+01, 0.000000e+00
$$ 1.022356e+01, 0.000000e+00
$$ 1.035689e+01, 0.000000e+00
$$ 1.049157e+01, 0.000000e+00
$$ 1.062762e+01, 0.000000e+00
$$ 1.076502e+01, 0.000000e+00
$$ 1.090381e+01, 0.000000e+00
$$ 1.104397e+01, 0.000000e+00
$$ 1.118552e+01, 0.000000e+00
$$ 1.132847e+01, 0.000000e+00
$$ 1.147282e+01, 0.000000e+00
$$ 1.161859e+01, 0.000000e+00
$$ 1.176576e+01, 0.000000e+00
$$ 1.191437e+01, 0.000000e+00
$$ 1.206441e+01, 0.000000e+00
$$ 1.221588e+01, 0.000000e+00
$$ 1.236880e+01, 0.000000e+00
$$ 1.252317e+01, 0.000000e+00
$$ 1.267900e+01, 0.000000e+00
$$ 1.283630e+01, 0.000000e+00
$$ 1.299506e+01, 0.000000e+00
$$ 1.315531e+01, 0.000000e+00
$$ 1.331704e+01, 0.000000e+00
$$ 1.348026e+01, 0.000000e+00
$$ 1.364498e+01, 0.000000e+00
$$ 1.381120e+01, 0.000000e+00
$$ 1.397893e+01, 0.000000e+00
$$ 1.414817e+01, 0.000000e+00
$$ 1.431893e+01, 0.000000e+00
$$ 1.449122e+01, 0.000000e+00
$$ 1.466505e+01, 0.000000e+00
$$ 1.484040e+01, 0.000000e+00
$$ 1.501731e+01, 0.000000e+00
$$ 1.519575e+01, 0.000000e+00
$$ 1.537576e+01, 0.000000e+00
$$ 1.555732e+01, 0.000000e+00
$$ 1.574044e+01, 0.000000e+00
$$ 1.592513e+01, 0.000000e+00
$$ 1.611139e+01, 0.000000e+00
$$ 1.629923e+01, 0.000000e+00
$$ 1.648865e+01, 0.000000e+00
$$ 1.667966e+01, 0.000000e+00
$$ 1.687225e+01, 0.000000e+00
$$ 1.706644e+01, 0.000000e+00
$$ 1.726223e+01, 0.000000e+00
$$ 1.745962e+01, 0.000000e+00
$$ 1.765862e+01, 0.000000e+00
$$ 1.785922e+01, 0.000000e+00
$$ 1.806143e+01, 0.000000e+00
$$ 1.826527e+01, 0.000000e+00
$$ 1.847071e+01, 0.000000e+00
$$ 1.867779e+01, 0.000000e+00
$$ 1.888648e+01, 0.000000e+00
$$ 1.909680e+01, 0.000000e+00
$$ 1.930875e+01, 0.000000e+00
$$ 1.952234e+01, 0.000000e+00
$$ 1.973755e+01, 0.000000e+00
$$ 1.995440e+01, 0.000000e+00
$$ 2.017290e+01, 0.000000e+00
$$ 2.039303e+01, 0.000000e+00
$$ 2.061480e+01, 0.000000e+00
$$ 2.083821e+01, 0.000000e+00
$$ 2.106327e+01, 0.000000e+00
$$ 2.128997e+01, 0.000000e+00
$$ 2.151832e+01, 0.000000e+00
$$ 2.174831e+01, 0.000000e+00
$$ 2.197995e+01, 0.000000e+00
$$ 2.221324e+01, 0.000000e+00
$$ 2.244817e+01, 0.000000e+00
$$ 2.268476e+01, 0.000000e+00
$$ 2.292299e+01, 0.000000e+00
$$ 2.316286e+01, 0.000000e+00
$$ 2.340438e+01, 0.000000e+00
$$ 2.364755e+01, 0.000000e+00
$$ 2.389236e+01, 0.000000e+00
$$ 2.413882e+01, 0.000000e+00
$$ 2.438692e+01, 0.000000e+00
$$ 2.463666e+01, 0.000000e+00
$$ 2.488803e+01, 0.000000e+00
$$ 2.514105e+01, 0.000000e+00
$$ 2.539570e+01, 0.000000e+00
$$ 2.565198e+01, 0.000000e+00
$$ 2.590989e+01, 0.000000e+00
$$ 2.616942e+01, 0.000000e+00
$$ 2.643059e+01, 0.000000e+00
$$ 2.669337e+01, 0.000000e+00
$$ 2.695777e+01, 0.000000e+00
$$ 2.722378e+01, 0.000000e+00
$$ 2.749141e+01, 0.000000e+00
$$ 2.776064e+01, 0.000000e+00
$$ 2.803147e+01, 0.000000e+00
$$ 2.830390e+01, 0.000000e+00
$$ 2.857792e+01, 0.000000e+00
$$ 2.885353e+01, 0.000000e+00
$$ 2.913072e+01, 0.000000e+00
$$ 2.940949e+01, 0.000000e+00
$$ 2.968983e+01, 0.000000e+00
$$ 2.997174e+01, 0.000000e+00
$$ 3.025521e+01, 0.000000e+00
$$ 3.054023e+01, 0.000000e+00
$$ 3.082679e+01, 0.000000e+00
$$ 3.111490e+01, 0.000000e+00
$$ 3.140454e+01, 0.000000e+00
$$ 3.169571e+01, 0.000000e+00
$$ 3.198840e+01, 0.000000e+00
$$ 3.228259e+01, 0.000000e+00
$$ 3.257829e+01, 0.000000e+00
$$ 3.287549e+01, 0.000000e+00
$$ 3.317417e+01, 0.000000e+00
$$ 3.347433e+01, 0.000000e+00
$$ 3.377596e+01, 0.000000e+00
$$ 3.407905e+01, 0.000000e+00
$$ 3.438359e+01, 0.000000e+00
$$ 3.468957e+01, 0.000000e+00
$$ 3.499698e+01, 0.000000e+00
$$ 3.530581e+01, 0.000000e+00
$$ 3.561605e+01, 0.000000e+00
$$ 3.592769e+01, 0.000000e+00
$$ 3.624072e+01, 0.000000e+00
$$ 3.655513e+01, 0.000000e+00
$$ 3.687091e+01, 0.000000e+00
$$ 3.718804e+01, 0.000000e+00
$$ 3.750651e+01, 0.000000e+00
$$ 3.782631e+01, 0.000000e+00
$$ 3.814744e+01, 0.000000e+00
$$ 3.846986e+01, 0.000000e+00
$$ 3.879359e+01, 0.000000e+00
$$ 3.911859e+01, 0.000000e+00
$$ 3.944486e+01, 0.000000e+00
$$ 3.977238e+01, 0.000000e+00
$$ 4.010114e+01, 0.000000e+00
$$ 4.043112e+01, 0.000000e+00
$$ 4.076232e+01, 0.000000e+00
$$ 4.109471e+01, 0.000000e+00
$$ 4.142829e+01, 0.000000e+00
$$ 4.176303e+01, 0.000000e+00
$$ 4.209892e+01, 0.000000e+00
$$ 4.243594e+01, 0.000000e+00
$$ 4.277409e+01, 0.000000e+00
$$ 4.311333e+01, 0.000000e+00
$$ 4.345367e+01, 0.000000e+00
$$ 4.379507e+01, 0.000000e+00
$$ 4.413752e+01, 0.000000e+00
$$ 4.448102e+01, 0.000000e+00
$$ 4.482553e+01, 0.000000e+00
$$ 4.517104e+01, 0.000000e+00
$$ 4.551753e+01, 0.000000e+00
$$ 4.586499e+01, 0.000000e+00
$$ 4.621339e+01, 0.000000e+00
$$ 4.656273e+01, 0.000000e+00
$$ 4.691297e+01, 0.000000e+00
$$ 4.726410e+01, 0.000000e+00
$$ 4.761610e+01, 0.000000e+00
$$ 4.796895e+01, 0.000000e+00
$$ 4.832264e+01, 0.000000e+00
$$ 4.867713e+01, 0.000000e+00
$$ 4.903241e+01, 0.000000e+00
$$ 4.938847e+01, 0.000000e+00
$$ 4.974527e+01, 0.000000e+00
$$ 5.010280e+01, 0.000000e+00
$$ 5.046104e+01, 0.000000e+00
$$ 5.081997e+01, 0.000000e+00
$$ 5.117955e+01, 0.000000e+00
$$ 5.153978e+01, 0.000000e+00
$$ 5.190063e+01, 0.000000e+00
$$ 5.226208e+01, 0.000000e+00
$$ 5.262410e+01, 0.000000e+00
$$ 5.298667e+01, 0.000000e+00
$$ 5.334977e+01, 0.000000e+00
$$ 5.371337e+01, 0.000000e+00
$$ 5.407746e+01, 0.000000e+00
$$ 5.444201e+01, 0.000000e+00
$$ 5.480699e+01, 0.000000e+00
$$ 5.517238e+01, 0.000000e+00
$$ 5.553815e+01, 0.000000e+00
$$ 5.590429e+01, 0.000000e+00
$$ 5.627076e+01, 0.000000e+00
$$ 5.663755e+01, 0.000000e+00
$$ 5.700462e+01, 0.000000e+00
$$ 5.737195e+01, 0.000000e+00
$$ 5.773952e+01, 0.000000e+00
$$ 5.810730e+01, 0.000000e+00
$$ 5.847526e+01, 0.000000e+00
$$ 5.884338e+01, 0.000000e+00
$$ 5.921163e+01, 0.000000e+00
$$ 5.957999e+01, 0.000000e+00
$$ 5.994843e+01, 0.000000e+00
$$ 6.031691e+01, 0.000000e+00
$$ 6.068542e+01, 0.000000e+00
$$ 6.105393e+01, 0.000000e+00
$$ 6.142241e+01, 0.000000e+00
$$ 6.179083e+01, 0.000000e+00
$$ 6.215917e+01, 0.000000e+00
$$ 6.252740e+01, 0.000000e+00
$$ 6.289548e+01, 0.000000e+00
$$ 6.326340e+01, 0.000000e+00
$$ 6.363112e+01, 0.000000e+00
$$ 6.399861e+01, 0.000000e+00
$$ 6.436585e+01, 0.000000e+00
$$ 6.473281e+01, 0.000000e+00
$$ 6.509945e+01, 0.000000e+00
$$ 6.546576e+01, 0.000000e+00
$$ 6.583170e+01, 0.000000e+00
$$ 6.619724e+01, 0.000000e+00
$$ 6.656235e+01, 0.000000e+00
$$ 6.692700e+01, 0.000000e+00
$$ 6.729117e+01, 0.000000e+00
$$ 6.765482e+01, 0.000000e+00
$$ 6.801793e+01, 0.000000e+00
$$ 6.838046e+01, 0.000000e+00
$$ 6.874239e+01, 0.000000e+00
$$ 6.910368e+01, 0.000000e+00
$$ 6.946430e+01, 0.000000e+00
$$ 6.982423e+01, 0.000000e+00
$$ 7.018344e+01, 0.000000e+00
$$ 7.054188e+01, 0.000000e+00
$$ 7.089954e+01, 0.000000e+00
$$ 7.125639e+01, 0.000000e+00
$$ 7.161238e+01, 0.000000e+00
$$ 7.196750e+01, 0.000000e+00
$$ 7.232171e+01, 0.000000e+00
$$ 7.267498e+01, 0.000000e+00
$$ 7.302728e+01, 0.000000e+00
$$ 7.337857e+01, 0.000000e+00
$$ 7.372884e+01, 0.000000e+00
$$ 7.407804e+01, 0.000000e+00
$$ 7.442615e+01, 0.000000e+00
$$ 7.477314e+01, 0.000000e+00
$$ 7.511897e+01, 0.000000e+00
$$ 7.546361e+01, 0.000000e+00
$$ 7.580704e+01, 0.000000e+00
$$ 7.614922e+01, 0.000000e+00
$$ 7.649012e+01, 0.000000e+00
$$ 7.682971e+01, 0.000000e+00
$$ 7.716795e+01, 0.000000e+00
$$ 7.750483e+01, 0.000000e+00
$$ 7.784030e+01, 0.000000e+00
$$ 7.817434e+01, 0.000000e+00
$$ 7.850692e+01, 0.000000e+00
$$ 7.883800e+01, 0.000000e+00
$$ 7.916755e+01, 0.000000e+00
$$ 7.949554e+01, 0.000000e+00
$$ 7.982195e+01, 0.000000e+00
$$ 8.014674e+01, 0.000000e+00
$$ 8.046988e+01, 0.000000e+00
$$ 8.079134e+01, 0.000000e+00
$$ 8.111109e+01, 0.000000e+00
$$ 8.142910e+01, 0.000000e+00
$$ 8.174534e+01, 0.000000e+00
$$ 8.205978e+01, 0.000000e+00
$$ 8.237239e+01, 0.000000e+00
$$ 8.268313e+01, 0.000000e+00
$$ 8.299199e+01, 0.000000e+00
$$ 8.329892e+01, 0.000000e+00
$$ 8.360390e+01, 0.000000e+00
$$ 8.390690e+01, 0.000000e+00
$$ 8.420789e+01, 0.000000e+00
$$ 8.450684e+01, 0.000000e+00
$$ 8.480372e+01, 0.000000e+00
$$ 8.509850e+01, 0.000000e+00
$$ 8.539116e+01, 0.000000e+00
$$ 8.568165e+01, 0.000000e+00
$$ 8.596997e+01, 0.000000e+00
$$ 8.625607e+01, 0.000000e+00
$$ 8.653992e+01, 0.000000e+00
$$ 8.682151e+01, 0.000000e+00
$$ 8.710079e+01, 0.000000e+00
$$ 8.737775e+01, 0.000000e+00
$$ 8.765235e+01, 0.000000e+00
$$ 8.792457e+01, 0.000000e+00
$$ 8.819439e+01, 0.000000e+00
$$ 8.846176e+01, 0.000000e+00
$$ 8.872667e+01, 0.000000e+00
$$ 8.898908e+01, 0.000000e+00
$$ 8.924898e+01, 0.000000e+00
$$ 8.950633e+01, 0.000000e+00
$$ 8.976111e+01, 0.000000e+00
$$ 9.001329e+01, 0.000000e+00
$$ 9.026285e+01, 0.000000e+00
$$ 9.050976e+01, 0.000000e+00
$$ 9.075400e+01, 0.000000e+00
$$ 9.099553e+01, 0.000000e+00
$$ 9.123434e+01, 0.000000e+00
$$ 9.147040e+01, 0.000000e+00
$$ 9.170369e+01, 0.000000e+00
$$ 9.193418e+01, 0.000000e+00
$$ 9.216184e+01, 0.000000e+00
$$ 9.238666e+01, 0.000000e+00
$$ 9.260860e+01, 0.000000e+00
$$ 9.282766e+01, 0.000000e+00
$$ 9.304379e+01, 0.000000e+00
$$ 9.325699e+01, 0.000000e+00
$$ 9.346722e+01, 0.000000e+00
$$ 9.367448e+01, 0.000000e+00
$$ 9.387872e+01, 0.000000e+00
$$ 9.407994e+01, 0.000000e+00
$$ 9.427811e+01, 0.000000e+00
$$ 9.447320e+01, 0.000000e+00
$$ 9.466521e+01, 0.000000e+00
$$ 9.485411e+01, 0.000000e+00
$$ 9.503987e+01, 0.000000e+00
$$ 9.522248e+01, 0.000000e+00
$$ 9.540192e+01, 0.000000e+00
$$ 9.557818e+01, 0.000000e+00
$$ 9.575122e+01, 0.000000e+00
$$ 9.592103e+01, 0.000000e+00
$$ 9.608760e+01, 0.000000e+00
$$ 9.625091e+01, 0.000000e+00
$$ 9.641093e+01, 0.000000e+00
$$ 9.656765e+01, 0.000000e+00
$$ 9.672106e+01, 0.000000e+00
$$ 9.687114e+01, 0.000000e+00
$$ 9.701787e+01, 0.000000e+00
$$ 9.716123e+01, 0.000000e+00
$$ 9.730121e+01, 0.000000e+00
$$ 9.743780e+01, 0.000000e+00
$$ 9.757098e+01, 0.000000e+00
$$ 9.770073e+01, 0.000000e+00
$$ 9.782704e+01, 0.000000e+00
$$ 9.794990e+01, 0.000000e+00
$$ 9.806930e+01, 0.000000e+00
$$ 9.818522e+01, 0.000000e+00
$$ 9.829764e+01, 0.000000e+00
$$ 9.840656e+01, 0.000000e+00
$$ 9.851197e+01, 0.000000e+00
$$ 9.861384e+01, 0.000000e+00
$$ 9.871218e+01, 0.000000e+00
$$ 9.880697e+01, 0.000000e+00
$$ 9.889820e+01, 0.000000e+00
$$ 9.898586e+01, 0.000000e+00
$$ 9.906994e+01, 0.000000e+00
$$ 9.915043e+01, 0.000000e+00
$$ 9.922732e+01, 0.000000e+00
$$ 9.930061e+01, 0.000000e+00
$$ 9.937028e+01, 0.000000e+00
$$ 9.943633e+01, 0.000000e+00
$$ 9.949875e+01, 0.000000e+00
$$ 9.955754e+01, 0.000000e+00
$$ 9.961268e+01, 0.000000e+00
$$ 9.966418e+01, 0.000000e+00
$$ 9.971202e+01, 0.000000e+00
$$ 9.975620e+01, 0.000000e+00
$$ 9.979671e+01, 0.000000e+00
$$ 9.983356e+01, 0.000000e+00
$$ 9.986673e+01, 0.000000e+00
$$ 9.989623e+01, 0.000000e+00
$$ 9.992205e+01, 0.000000e+00
$$ 9.994418e+01, 0.000000e+00
$$ 9.996263e+01, 0.000000e+00
$$ 9.997739e+01, 0.000000e+00
$$ 9.998846e+01, 0.000000e+00
$$ 9.999585e+01, 0.000000e+00
$$ 9.999954e+01, 0.000000e+00
$$ 9.999954e+01, 0.000000e+00
$$ 9.999585e+01, 0.000000e+00
$$ 9.998846e+01, 0.000000e+00
$$ 9.997739e+01, 0.000000e+00
$$ 9.996263e+01, 0.000000e+00
$$ 9.994418e+01, 0.000000e+00
$$ 9.992205e+01, 0.000000e+00
$$ 9.989623e+01, 0.000000e+00
$$ 9.986673e+01, 0.000000e+00
$$ 9.983356e+01, 0.000000e+00
$$ 9.979671e+01, 0.000000e+00
$$ 9.975620e+01, 0.000000e+00
$$ 9.971202e+01, 0.000000e+00
$$ 9.966418e+01, 0.000000e+00
$$ 9.961268e+01, 0.000000e+00
$$ 9.955754e+01, 0.000000e+00
$$ 9.949875e+01, 0.000000e+00
$$ 9.943633e+01, 0.000000e+00
$$ 9.937028e+01, 0.000000e+00
$$ 9.930061e+01, 0.000000e+00
$$ 9.922732e+01, 0.000000e+00
$$ 9.915043e+01, 0.000000e+00
$$ 9.906994e+01, 0.000000e+00
$$ 9.898586e+01, 0.000000e+00
$$ 9.889820e+01, 0.000000e+00
$$ 9.880697e+01, 0.000000e+00
$$ 9.871218e+01, 0.000000e+00
$$ 9.861384e+01, 0.000000e+00
$$ 9.851197e+01, 0.000000e+00
$$ 9.840656e+01, 0.000000e+00
$$ 9.829764e+01, 0.000000e+00
$$ 9.818522e+01, 0.000000e+00
$$ 9.806930e+01, 0.000000e+00
$$ 9.794990e+01, 0.000000e+00
$$ 9.782704e+01, 0.000000e+00
$$ 9.770073e+01, 0.000000e+00
$$ 9.757098e+01, 0.000000e+00
$$ 9.743780e+01, 0.000000e+00
$$ 9.730121e+01, 0.000000e+00
$$ 9.716123e+01, 0.000000e+00
$$ 9.701787e+01, 0.000000e+00
$$ 9.687114e+01, 0.000000e+00
$$ 9.672106e+01, 0.000000e+00
$$ 9.656765e+01, 0.000000e+00
$$ 9.641093e+01, 0.000000e+00
$$ 9.625091e+01, 0.000000e+00
$$ 9.608760e+01, 0.000000e+00
$$ 9.592103e+01, 0.000000e+00
$$ 9.575122e+01, 0.000000e+00
$$ 9.557818e+01, 0.000000e+00
$$ 9.540192e+01, 0.000000e+00
$$ 9.522248e+01, 0.000000e+00
$$ 9.503987e+01, 0.000000e+00
$$ 9.485411e+01, 0.000000e+00
$$ 9.466521e+01, 0.000000e+00
$$ 9.447320e+01, 0.000000e+00
$$ 9.427811e+01, 0.000000e+00
$$ 9.407994e+01, 0.000000e+00
$$ 9.387872e+01, 0.000000e+00
$$ 9.367448e+01, 0.000000e+00
$$ 9.346722e+01, 0.000000e+00
$$ 9.325699e+01, 0.000000e+00
$$ 9.304379e+01, 0.000000e+00
$$ 9.282766e+01, 0.000000e+00
$$ 9.260860e+01, 0.000000e+00
$$ 9.238666e+01, 0.000000e+00
$$ 9.216184e+01, 0.000000e+00
$$ 9.193418e+01, 0.000000e+00
$$ 9.170369e+01, 0.000000e+00
$$ 9.147040e+01, 0.000000e+00
$$ 9.123434e+01, 0.000000e+00
$$ 9.099553e+01, 0.000000e+00
$$ 9.075400e+01, 0.000000e+00
$$ 9.050976e+01, 0.000000e+00
$$ 9.026285e+01, 0.000000e+00
$$ 9.001329e+01, 0.000000e+00
$$ 8.976111e+01, 0.000000e+00
$$ 8.950633e+01, 0.000000e+00
$$ 8.924898e+01, 0.000000e+00
$$ 8.898908e+01, 0.000000e+00
$$ 8.872667e+01, 0.000000e+00
$$ 8.846176e+01, 0.000000e+00
$$ 8.819439e+01, 0.000000e+00
$$ 8.792457e+01, 0.000000e+00
$$ 8.765235e+01, 0.000000e+00
$$ 8.737775e+01, 0.000000e+00
$$ 8.710079e+01, 0.000000e+00
$$ 8.682151e+01, 0.000000e+00
$$ 8.653992e+01, 0.000000e+00
$$ 8.625607e+01, 0.000000e+00
$$ 8.596997e+01, 0.000000e+00
$$ 8.568165e+01, 0.000000e+00
$$ 8.539116e+01, 0.000000e+00
$$ 8.509850e+01, 0.000000e+00
$$ 8.480372e+01, 0.000000e+00
$$ 8.450684e+01, 0.000000e+00
$$ 8.420789e+01, 0.000000e+00
$$ 8.390690e+01, 0.000000e+00
$$ 8.360390e+01, 0.000000e+00
$$ 8.329892e+01, 0.000000e+00
$$ 8.299199e+01, 0.000000e+00
$$ 8.268313e+01, 0.000000e+00
$$ 8.237239e+01, 0.000000e+00
$$ 8.205978e+01, 0.000000e+00
$$ 8.174534e+01, 0.000000e+00
$$ 8.142910e+01, 0.000000e+00
$$ 8.111109e+01, 0.000000e+00
$$ 8.079134e+01, 0.000000e+00
$$ 8.046988e+01, 0.000000e+00
$$ 8.014674e+01, 0.000000e+00
$$ 7.982195e+01, 0.000000e+00
$$ 7.949554e+01, 0.000000e+00
$$ 7.916755e+01, 0.000000e+00
$$ 7.883800e+01, 0.000000e+00
$$ 7.850692e+01, 0.000000e+00
$$ 7.817434e+01, 0.000000e+00
$$ 7.784030e+01, 0.000000e+00
$$ 7.750483e+01, 0.000000e+00
$$ 7.716795e+01, 0.000000e+00
$$ 7.682971e+01, 0.000000e+00
$$ 7.649012e+01, 0.000000e+00
$$ 7.614922e+01, 0.000000e+00
$$ 7.580704e+01, 0.000000e+00
$$ 7.546361e+01, 0.000000e+00
$$ 7.511897e+01, 0.000000e+00
$$ 7.477314e+01, 0.000000e+00
$$ 7.442615e+01, 0.000000e+00
$$ 7.407804e+01, 0.000000e+00
$$ 7.372884e+01, 0.000000e+00
$$ 7.337857e+01, 0.000000e+00
$$ 7.302728e+01, 0.000000e+00
$$ 7.267498e+01, 0.000000e+00
$$ 7.232171e+01, 0.000000e+00
$$ 7.196750e+01, 0.000000e+00
$$ 7.161238e+01, 0.000000e+00
$$ 7.125639e+01, 0.000000e+00
$$ 7.089954e+01, 0.000000e+00
$$ 7.054188e+01, 0.000000e+00
$$ 7.018344e+01, 0.000000e+00
$$ 6.982423e+01, 0.000000e+00
$$ 6.946430e+01, 0.000000e+00
$$ 6.910368e+01, 0.000000e+00
$$ 6.874239e+01, 0.000000e+00
$$ 6.838046e+01, 0.000000e+00
$$ 6.801793e+01, 0.000000e+00
$$ 6.765482e+01, 0.000000e+00
$$ 6.729117e+01, 0.000000e+00
$$ 6.692700e+01, 0.000000e+00
$$ 6.656235e+01, 0.000000e+00
$$ 6.619724e+01, 0.000000e+00
$$ 6.583170e+01, 0.000000e+00
$$ 6.546576e+01, 0.000000e+00
$$ 6.509945e+01, 0.000000e+00
$$ 6.473281e+01, 0.000000e+00
$$ 6.436585e+01, 0.000000e+00
$$ 6.399861e+01, 0.000000e+00
$$ 6.363112e+01, 0.000000e+00
$$ 6.326340e+01, 0.000000e+00
$$ 6.289548e+01, 0.000000e+00
$$ 6.252740e+01, 0.000000e+00
$$ 6.215917e+01, 0.000000e+00
$$ 6.179083e+01, 0.000000e+00
$$ 6.142241e+01, 0.000000e+00
$$ 6.105393e+01, 0.000000e+00
$$ 6.068542e+01, 0.000000e+00
$$ 6.031691e+01, 0.000000e+00
$$ 5.994843e+01, 0.000000e+00
$$ 5.957999e+01, 0.000000e+00
$$ 5.921163e+01, 0.000000e+00
$$ 5.884338e+01, 0.000000e+00
$$ 5.847526e+01, 0.000000e+00
$$ 5.810730e+01, 0.000000e+00
$$ 5.773952e+01, 0.000000e+00
$$ 5.737195e+01, 0.000000e+00
$$ 5.700462e+01, 0.000000e+00
$$ 5.663755e+01, 0.000000e+00
$$ 5.627076e+01, 0.000000e+00
$$ 5.590429e+01, 0.000000e+00
$$ 5.553815e+01, 0.000000e+00
$$ 5.517238e+01, 0.000000e+00
$$ 5.480699e+01, 0.000000e+00
$$ 5.444201e+01, 0.000000e+00
$$ 5.407746e+01, 0.000000e+00
$$ 5.371337e+01, 0.000000e+00
$$ 5.334977e+01, 0.000000e+00
$$ 5.298667e+01, 0.000000e+00
$$ 5.262410e+01, 0.000000e+00
$$ 5.226208e+01, 0.000000e+00
$$ 5.190063e+01, 0.000000e+00
$$ 5.153978e+01, 0.000000e+00
$$ 5.117955e+01, 0.000000e+00
$$ 5.081997e+01, 0.000000e+00
$$ 5.046104e+01, 0.000000e+00
$$ 5.010280e+01, 0.000000e+00
$$ 4.974527e+01, 0.000000e+00
$$ 4.938847e+01, 0.000000e+00
$$ 4.903241e+01, 0.000000e+00
$$ 4.867713e+01, 0.000000e+00
$$ 4.832264e+01, 0.000000e+00
$$ 4.796895e+01, 0.000000e+00
$$ 4.761610e+01, 0.000000e+00
$$ 4.726410e+01, 0.000000e+00
$$ 4.691297e+01, 0.000000e+00
$$ 4.656273e+01, 0.000000e+00
$$ 4.621339e+01, 0.000000e+00
$$ 4.586499e+01, 0.000000e+00
$$ 4.551753e+01, 0.000000e+00
$$ 4.517104e+01, 0.000000e+00
$$ 4.482553e+01, 0.000000e+00
$$ 4.448102e+01, 0.000000e+00
$$ 4.413752e+01, 0.000000e+00
$$ 4.379507e+01, 0.000000e+00
$$ 4.345367e+01, 0.000000e+00
$$ 4.311333e+01, 0.000000e+00
$$ 4.277409e+01, 0.000000e+00
$$ 4.243594e+01, 0.000000e+00
$$ 4.209892e+01, 0.000000e+00
$$ 4.176303e+01, 0.000000e+00
$$ 4.142829e+01, 0.000000e+00
$$ 4.109471e+01, 0.000000e+00
$$ 4.076232e+01, 0.000000e+00
$$ 4.043112e+01, 0.000000e+00
$$ 4.010114e+01, 0.000000e+00
$$ 3.977238e+01, 0.000000e+00
$$ 3.944486e+01, 0.000000e+00
$$ 3.911859e+01, 0.000000e+00
$$ 3.879359e+01, 0.000000e+00
$$ 3.846986e+01, 0.000000e+00
$$ 3.814744e+01, 0.000000e+00
$$ 3.782631e+01, 0.000000e+00
$$ 3.750651e+01, 0.000000e+00
$$ 3.718804e+01, 0.000000e+00
$$ 3.687091e+01, 0.000000e+00
$$ 3.655513e+01, 0.000000e+00
$$ 3.624072e+01, 0.000000e+00
$$ 3.592769e+01, 0.000000e+00
$$ 3.561605e+01, 0.000000e+00
$$ 3.530581e+01, 0.000000e+00
$$ 3.499698e+01, 0.000000e+00
$$ 3.468957e+01, 0.000000e+00
$$ 3.438359e+01, 0.000000e+00
$$ 3.407905e+01, 0.000000e+00
$$ 3.377596e+01, 0.000000e+00
$$ 3.347433e+01, 0.000000e+00
$$ 3.317417e+01, 0.000000e+00
$$ 3.287549e+01, 0.000000e+00
$$ 3.257829e+01, 0.000000e+00
$$ 3.228259e+01, 0.000000e+00
$$ 3.198840e+01, 0.000000e+00
$$ 3.169571e+01, 0.000000e+00
$$ 3.140454e+01, 0.000000e+00
$$ 3.111490e+01, 0.000000e+00
$$ 3.082679e+01, 0.000000e+00
$$ 3.054023e+01, 0.000000e+00
$$ 3.025521e+01, 0.000000e+00
$$ 2.997174e+01, 0.000000e+00
$$ 2.968983e+01, 0.000000e+00
$$ 2.940949e+01, 0.000000e+00
$$ 2.913072e+01, 0.000000e+00
$$ 2.885353e+01, 0.000000e+00
$$ 2.857792e+01, 0.000000e+00
$$ 2.830390e+01, 0.000000e+00
$$ 2.803147e+01, 0.000000e+00
$$ 2.776064e+01, 0.000000e+00
$$ 2.749141e+01, 0.000000e+00
$$ 2.722378e+01, 0.000000e+00
$$ 2.695777e+01, 0.000000e+00
$$ 2.669337e+01, 0.000000e+00
$$ 2.643059e+01, 0.000000e+00
$$ 2.616942e+01, 0.000000e+00
$$ 2.590989e+01, 0.000000e+00
$$ 2.565198e+01, 0.000000e+00
$$ 2.539570e+01, 0.000000e+00
$$ 2.514105e+01, 0.000000e+00
$$ 2.488803e+01, 0.000000e+00
$$ 2.463666e+01, 0.000000e+00
$$ 2.438692e+01, 0.000000e+00
$$ 2.413882e+01, 0.000000e+00
$$ 2.389236e+01, 0.000000e+00
$$ 2.364755e+01, 0.000000e+00
$$ 2.340438e+01, 0.000000e+00
$$ 2.316286e+01, 0.000000e+00
$$ 2.292299e+01, 0.000000e+00
$$ 2.268476e+01, 0.000000e+00
$$ 2.244817e+01, 0.000000e+00
$$ 2.221324e+01, 0.000000e+00
$$ 2.197995e+01, 0.000000e+00
$$ 2.174831e+01, 0.000000e+00
$$ 2.151832e+01, 0.000000e+00
$$ 2.128997e+01, 0.000000e+00
$$ 2.106327e+01, 0.000000e+00
$$ 2.083821e+01, 0.000000e+00
$$ 2.061480e+01, 0.000000e+00
$$ 2.039303e+01, 0.000000e+00
$$ 2.017290e+01, 0.000000e+00
$$ 1.995440e+01, 0.000000e+00
$$ 1.973755e+01, 0.000000e+00
$$ 1.952234e+01, 0.000000e+00
$$ 1.930875e+01, 0.000000e+00
$$ 1.909680e+01, 0.000000e+00
$$ 1.888648e+01, 0.000000e+00
$$ 1.867779e+01, 0.000000e+00
$$ 1.847071e+01, 0.000000e+00
$$ 1.826527e+01, 0.000000e+00
$$ 1.806143e+01, 0.000000e+00
$$ 1.785922e+01, 0.000000e+00
$$ 1.765862e+01, 0.000000e+00
$$ 1.745962e+01, 0.000000e+00
$$ 1.726223e+01, 0.000000e+00
$$ 1.706644e+01, 0.000000e+00
$$ 1.687225e+01, 0.000000e+00
$$ 1.667966e+01, 0.000000e+00
$$ 1.648865e+01, 0.000000e+00
$$ 1.629923e+01, 0.000000e+00
$$ 1.611139e+01, 0.000000e+00
$$ 1.592513e+01, 0.000000e+00
$$ 1.574044e+01, 0.000000e+00
$$ 1.555732e+01, 0.000000e+00
$$ 1.537576e+01, 0.000000e+00
$$ 1.519575e+01, 0.000000e+00
$$ 1.501731e+01, 0.000000e+00
$$ 1.484040e+01, 0.000000e+00
$$ 1.466505e+01, 0.000000e+00
$$ 1.449122e+01, 0.000000e+00
$$ 1.431893e+01, 0.000000e+00
$$ 1.414817e+01, 0.000000e+00
$$ 1.397893e+01, 0.000000e+00
$$ 1.381120e+01, 0.000000e+00
$$ 1.364498e+01, 0.000000e+00
$$ 1.348026e+01, 0.000000e+00
$$ 1.331704e+01, 0.000000e+00
$$ 1.315531e+01, 0.000000e+00
$$ 1.299506e+01, 0.000000e+00
$$ 1.283630e+01, 0.000000e+00
$$ 1.267900e+01, 0.000000e+00
$$ 1.252317e+01, 0.000000e+00
$$ 1.236880e+01, 0.000000e+00
$$ 1.221588e+01, 0.000000e+00
$$ 1.206441e+01, 0.000000e+00
$$ 1.191437e+01, 0.000000e+00
$$ 1.176576e+01, 0.000000e+00
$$ 1.161859e+01, 0.000000e+00
$$ 1.147282e+01, 0.000000e+00
$$ 1.132847e+01, 0.000000e+00
$$ 1.118552e+01, 0.000000e+00
$$ 1.104397e+01, 0.000000e+00
$$ 1.090381e+01, 0.000000e+00
$$ 1.076502e+01, 0.000000e+00
$$ 1.062762e+01, 0.000000e+00
$$ 1.049157e+01, 0.000000e+00
$$ 1.035689e+01, 0.000000e+00
$$ 1.022356e+01, 0.000000e+00
$$ 1.009157e+01, 0.000000e+00
$$ 9.960923e+00, 0.000000e+00
$$ 9.831601e+00, 0.000000e+00
$$ 9.703600e+00, 0.000000e+00
$$ 9.576911e+00, 0.000000e+00
$$ 9.451528e+00, 0.000000e+00
$$ 9.327442e+00, 0.000000e+00
$$ 9.204645e+00, 0.000000e+00
$$ 9.083130e+00, 0.000000e+00
$$ 8.962887e+00, 0.000000e+00
$$ 8.843911e+00, 0.000000e+00
$$ 8.726191e+00, 0.000000e+00
$$ 8.609720e+00, 0.000000e+00
$$ 8.494491e+00, 0.000000e+00
$$ 8.380494e+00, 0.000000e+00
$$ 8.267722e+00, 0.000000e+00
$$ 8.156166e+00, 0.000000e+00
$$ 8.045819e+00, 0.000000e+00
$$ 7.936671e+00, 0.000000e+00
$$ 7.828715e+00, 0.000000e+00
$$ 7.721943e+00, 0.000000e+00
$$ 7.616345e+00, 0.000000e+00
$$ 7.511914e+00, 0.000000e+00
$$ 7.408642e+00, 0.000000e+00
$$ 7.306520e+00, 0.000000e+00
$$ 7.205539e+00, 0.000000e+00
$$ 7.105692e+00, 0.000000e+00
$$ 7.006969e+00, 0.000000e+00
$$ 6.909363e+00, 0.000000e+00
$$ 6.812866e+00, 0.000000e+00
$$ 6.717468e+00, 0.000000e+00
$$ 6.623161e+00, 0.000000e+00
$$ 6.529937e+00, 0.000000e+00
$$ 6.437788e+00, 0.000000e+00
$$ 6.346705e+00, 0.000000e+00
$$ 6.256679e+00, 0.000000e+00
$$ 6.167703e+00, 0.000000e+00
$$ 6.079768e+00, 0.000000e+00
$$ 5.992865e+00, 0.000000e+00
$$ 5.906986e+00, 0.000000e+00
$$ 5.822123e+00, 0.000000e+00
$$ 5.738268e+00, 0.000000e+00
$$ 5.655411e+00, 0.000000e+00
$$ 5.573545e+00, 0.000000e+00
$$ 5.492661e+00, 0.000000e+00
$$ 5.412752e+00, 0.000000e+00
$$ 5.333808e+00, 0.000000e+00
$$ 5.255821e+00, 0.000000e+00
$$ 5.178783e+00, 0.000000e+00
$$ 5.102687e+00, 0.000000e+00
$$ 5.027522e+00, 0.000000e+00
$$ 4.953282e+00, 0.000000e+00
$$ 4.879959e+00, 0.000000e+00
$$ 4.807543e+00, 0.000000e+00
$$ 4.736027e+00, 0.000000e+00
$$ 4.665402e+00, 0.000000e+00
$$ 4.595662e+00, 0.000000e+00
$$ 4.526796e+00, 0.000000e+00
$$ 4.458798e+00, 0.000000e+00
$$ 4.391659e+00, 0.000000e+00
$$ 4.325371e+00, 0.000000e+00
$$ 4.259927e+00, 0.000000e+00
$$ 4.195318e+00, 0.000000e+00
$$ 4.131537e+00, 0.000000e+00
$$ 4.068575e+00, 0.000000e+00
$$ 4.006424e+00, 0.000000e+00
$$ 3.945077e+00, 0.000000e+00
$$ 3.884526e+00, 0.000000e+00
$$ 3.824764e+00, 0.000000e+00
$$ 3.765782e+00, 0.000000e+00
$$ 3.707572e+00, 0.000000e+00
$$ 3.650128e+00, 0.000000e+00
$$ 3.593441e+00, 0.000000e+00
$$ 3.537503e+00, 0.000000e+00
$$ 3.482308e+00, 0.000000e+00
$$ 3.427848e+00, 0.000000e+00
$$ 3.374114e+00, 0.000000e+00
$$ 3.321101e+00, 0.000000e+00
$$ 3.268799e+00, 0.000000e+00
$$ 3.217203e+00, 0.000000e+00
$$ 3.166304e+00, 0.000000e+00
$$ 3.116095e+00, 0.000000e+00
$$ 3.066570e+00, 0.000000e+00
$$ 3.017720e+00, 0.000000e+00
$$ 2.969538e+00, 0.000000e+00
$$ 2.922018e+00, 0.000000e+00
$$ 2.875152e+00, 0.000000e+00
$$ 2.828934e+00, 0.000000e+00
$$ 2.783356e+00, 0.000000e+00
$$ 2.738411e+00, 0.000000e+00
$$ 2.694092e+00, 0.000000e+00
$$ 2.650393e+00, 0.000000e+00
$$ 2.607306e+00, 0.000000e+00
$$ 2.564825e+00, 0.000000e+00
$$ 2.522943e+00, 0.000000e+00
$$ 2.481653e+00, 0.000000e+00
$$ 2.440949e+00, 0.000000e+00
$$ 2.400824e+00, 0.000000e+00
$$ 2.361271e+00, 0.000000e+00
$$ 2.322285e+00, 0.000000e+00
$$ 2.283857e+00, 0.000000e+00
$$ 2.245983e+00, 0.000000e+00
$$ 2.208655e+00, 0.000000e+00
$$ 2.171868e+00, 0.000000e+00
$$ 2.135614e+00, 0.000000e+00
$$ 2.099888e+00, 0.000000e+00
$$ 2.064683e+00, 0.000000e+00
$$ 2.029994e+00, 0.000000e+00
$$ 1.995813e+00, 0.000000e+00
$$ 1.962136e+00, 0.000000e+00
$$ 1.928956e+00, 0.000000e+00
$$ 1.896267e+00, 0.000000e+00
$$ 1.864063e+00, 0.000000e+00
$$ 1.832339e+00, 0.000000e+00
$$ 1.801088e+00, 0.000000e+00
$$ 1.770304e+00, 0.000000e+00
$$ 1.739982e+00, 0.000000e+00
$$ 1.710117e+00, 0.000000e+00
$$ 1.680702e+00, 0.000000e+00
$$ 1.651732e+00, 0.000000e+00
$$ 1.623202e+00, 0.000000e+00
$$ 1.595105e+00, 0.000000e+00
$$ 1.567437e+00, 0.000000e+00
$$ 1.540192e+00, 0.000000e+00
$$ 1.513365e+00, 0.000000e+00
$$ 1.486950e+00, 0.000000e+00
$$ 1.460942e+00, 0.000000e+00
$$ 1.435337e+00, 0.000000e+00
$$ 1.410127e+00, 0.000000e+00
$$ 1.385310e+00, 0.000000e+00
$$ 1.360879e+00, 0.000000e+00
$$ 1.336830e+00, 0.000000e+00
$$ 1.313157e+00, 0.000000e+00
$$ 1.289855e+00, 0.000000e+00
$$ 1.266921e+00, 0.000000e+00
$$ 1.244348e+00, 0.000000e+00
$$ 1.222132e+00, 0.000000e+00
$$ 1.200269e+00, 0.000000e+00
$$ 1.178753e+00, 0.000000e+00
$$ 1.157580e+00, 0.000000e+00
$$ 1.136746e+00, 0.000000e+00
$$ 1.116245e+00, 0.000000e+00
$$ 1.096073e+00, 0.000000e+00
$$ 1.076227e+00, 0.000000e+00
$$ 1.056700e+00, 0.000000e+00
$$ 1.037490e+00, 0.000000e+00
$$ 1.018591e+00, 0.000000e+00
$$ 1.000000e+00, 0.000000e+00
$$ ##END= 
##$RELAX= 
##$BRUKER FILE EXP=pulseprogram
$$ # 1 "/opt/topspin/exp/stan/nmr/lists/pp/cosygpqf"
$$ ;cosygpqf
$$ ;avance-version (07/04/05)
$$ ;2D homonuclear shift correlation
$$ ;using gradient pulses for selection
$$ ;
$$ ;$CLASS=HighRes
$$ ;$DIM=2D
$$ ;$TYPE=
$$ ;$SUBTYPE=
$$ ;$COMMENT=
$$ 
$$ 
$$ # 1 "/opt/topspin/exp/stan/nmr/lists/pp/Avance.incl" 1
$$ ;Avance3.incl
$$ ;   for AV III
$$ ;
$$ ;avance-version (07/12/14)
$$ ;
$$ ;$CLASS=HighRes Incl
$$ ;$COMMENT=
$$ 
$$ 
$$ 
$$ 
$$ 
$$ 
$$ 
$$ 
$$ 
$$ 
$$ 
$$ 
$$ 
$$ 
$$ 
$$ 
$$ 
$$ 
$$ 
$$ 
$$ 
$$ 
$$ 
$$ 
$$ 
$$ 
$$ 
$$ 
$$ 
$$ 
$$ 
$$ 
$$ 
$$ 
$$ 
$$ 
$$ 
$$ 
$$ 
$$ 
$$ 
$$ 
$$ 
$$ 
$$ 
$$ 
$$ 
$$ 
$$ 
$$ 
$$ 
$$ 
$$ 
$$ 
$$ 
$$ 
$$ 
$$ 
$$ 
$$ 
$$ 
$$ 
$$ 
$$ 
$$ 
$$ 
$$ 
$$ 
$$ 
$$ 
$$ 
$$ 
$$ 
$$ 
$$ 
$$ 
$$ 
$$ 
$$ 
$$ 
$$ 
$$ 
$$ 
$$ 
$$ 
$$ 
$$ 
$$ 
$$ 
$$ 
$$ 
$$ 
$$ 
$$ 
$$ 
$$ 
$$ 
$$ 
$$ 
$$ 
$$ 
$$ 
$$ 
$$ 
$$ 
$$ 
$$ 
$$ 
$$ 
$$ 
$$ 
$$ 
$$ 
$$ 
$$ 
$$ 
$$ 
$$ 
$$ 
$$ 
$$ 
$$ 
$$ 
$$ 
$$ 
$$ 
$$ 
$$ 
$$ 
$$ 
$$ 
$$ 
$$ 
$$ 
$$ 
$$ 
$$ 
$$ 
$$ 
$$ 
$$ 
$$ 
$$ 
$$ 
$$ 
$$ 
$$ 
$$ 
$$ 
$$ 
$$ 
$$ 
$$ 
$$ 
$$ 
$$ 
$$ 
$$ ;$Id: Avance3.incl,v 1.6.2.2 2007/12/14 16:06:46 ber Exp $
$$ # 13 "/opt/topspin/exp/stan/nmr/lists/pp/cosygpqf" 2
$$ 
$$ # 1 "/opt/topspin/exp/stan/nmr/lists/pp/Grad.incl" 1
$$ ;Grad2.incl  -  include file for Gradient Spectroscopy
$$ ;   for 1
$$ ;
$$ ;avance-version (07/01/17)
$$ ;
$$ ;$CLASS=HighRes Incl
$$ ;$COMMENT=
$$ 
$$ 
$$ 
$$ 
$$ 
$$ 
$$ 
$$ 
$$ 
$$ 
$$ 
$$ 
$$ 
$$ 
$$ 
$$ 
$$ 
$$ 
$$ 
$$ define list<gradient> EA=<EA>
$$ 
$$ 
$$ 
$$ ;$Id: Grad2.incl,v 1.12 2007/01/22 14:22:35 ber Exp $
$$ # 14 "/opt/topspin/exp/stan/nmr/lists/pp/cosygpqf" 2
$$ 
$$ 
$$ 
$$ "d13=4u"
$$ 
$$ 
$$ "in0=inf1"
$$ 
$$ "d0=3u"
$$ 
$$ 
$$ # 1 "mc_line 25 file /opt/topspin/exp/stan/nmr/lists/pp/cosygpqf expanding definition part of mc command before ze"
$$ define delay MCWRK
$$ define delay MCREST
$$ "MCWRK = 0.500000*d1"
$$ "MCREST = d1 - d1"
$$     dccorr
$$ # 25 "/opt/topspin/exp/stan/nmr/lists/pp/cosygpqf"
$$ 1 ze
$$ # 1 "mc_line 25 file /opt/topspin/exp/stan/nmr/lists/pp/cosygpqf expanding definition of mc command after ze"
$$ # 26 "/opt/topspin/exp/stan/nmr/lists/pp/cosygpqf"
$$ # 1 "mc_line 26 file /opt/topspin/exp/stan/nmr/lists/pp/cosygpqf expanding start label for mc command"
$$ 2 MCWRK 
$$ LBLF1, MCWRK
$$   MCREST
$$ # 27 "/opt/topspin/exp/stan/nmr/lists/pp/cosygpqf"
$$ 3 p1 ph1
$$   d0
$$   50u setnmr3|0 setnmr0|34|32|33 ctrlgrad 0
$$   p16:gp1
$$   d16
$$   p0 ph2
$$   d13
$$   p16:gp1
$$   d16
$$   4u setnmr3^0 setnmr0^34^32^33 ctrlgrad 7
$$   go=2 ph31
$$ # 1 "mc_line 38 file /opt/topspin/exp/stan/nmr/lists/pp/cosygpqf expanding mc command in line"
$$   MCWRK  wr #0 if #0 zd id0 
$$   lo to LBLF1 times td1
$$   MCWRK
$$ # 39 "/opt/topspin/exp/stan/nmr/lists/pp/cosygpqf"
$$ exit
$$ 
$$ 
$$ ph1=0 2
$$ ph2=0 0 2 2
$$ ph31=0 2
$$ 
$$ 
$$ ;pl1 : f1 channel - power level for pulse (default)
$$ ;p0 : f1 channel -  20 to 90 degree high power pulse
$$ ;p1 : f1 channel -  90 degree high power pulse
$$ ;p16: homospoil/gradient pulse
$$ ;d0 : incremented delay (2D)                         [3 usec]
$$ ;d1 : relaxation delay; 1-5 * T1
$$ ;d13: short delay                                    [4 usec]
$$ ;d16: delay for homospoil/gradient recovery
$$ ;inf1: 1/SW = 2 * DW
$$ ;in0: 1/(1 * SW) = 2 * DW
$$ ;nd0: 1
$$ ;NS: 1 * n
$$ ;DS: 16
$$ ;td1: number of experiments
$$ ;FnMODE: QF
$$ 
$$ ;use gradient ratio:	gp 1
$$ ;			  10
$$ 
$$ ;for z-only gradients:
$$ ;gpz1: 10%
$$ 
$$ ;use gradient files:   
$$ ;gpnam1: SINE.100
$$ 
$$ 
$$ 
$$ ;$Id: cosygpqf,v 1.5 2007/04/11 13:34:29 ber Exp $
##$RELAX= 
##$BRUKER FILE EXP=shimvalues
$$ # Fri Dec  2 15:10:13 2016
$$ #$$PROBEID=34
$$ #$$PROBEINFO=5 mm BBO BB-1H/D Z-GRD Z8478/0071
$$ #$$PICSINFO=Z8478_0071_34.par
$$ #
$$ # Active Shim Gradients
$$ #
$$ Z           		-11534          
$$ Z2          		-1072           
$$ Z3          		6916            
$$ Z4          		-2944           
$$ Z5          		1935            
$$ Z6          		-843            
$$ X           		1219            
$$ XZ          		578             
$$ XZ2         		9238            
$$ XZ3         		633             
$$ XZ4         		1136            
$$ XZ5         		-6350           
$$ Y           		1280            
$$ YZ          		663             
$$ YZ2         		190             
$$ YZ3         		-1621           
$$ YZ4         		-25             
$$ YZ5         		-1120           
$$ XY          		296             
$$ XYZ         		7419            
$$ XYZ2        		2530            
$$ XYZ3        		-1745           
$$ XYZ4        		3130            
$$ XYZ5        		6388            
$$ (X2-Y2)     		-228            
$$ (X2-Y2)Z    		5640            
$$ (X2-Y2)Z2   		-1165           
$$ (X2-Y2)Z3   		4238            
$$ (X2-Y2)Z4   		4996            
$$ (X2-Y2)Z5   		1510            
$$ X3          		795             
$$ X3Z         		2675            
$$ Y3          		235             
$$ Y3Z         		5139            
$$ #
$$ # Lock Parameter
$$ #
$$ LOCKPHASE		95.000  
$$ LOCKPOWER		-30.000 
$$ LOCKGAIN		104.147 
$$ LOCKDC		-75.000 
$$ LOCKSHIFT		2.490   
$$ FIELD		5606.812
$$ LOOPGAIN		5.000   
$$ LOOPTIME		0.250   
$$ LOOPFILTER		200.000 
$$ #
$$ IEEE64_VERSION_CODE 1
$$ #
$$ # Shim currents 
$$ #
$$ SHIM_SETTING [1 ]  -5594.05389136  
$$ SHIM_SETTING [2 ]  -1072.12135855  
$$ SHIM_SETTING [3 ]  6916.36641451   
$$ SHIM_SETTING [4 ]  0.00000000      
$$ SHIM_SETTING [5 ]  -2944.46431505  
$$ SHIM_SETTING [6 ]  1934.88231310   
$$ SHIM_SETTING [7 ]  -843.00000000   
$$ SHIM_SETTING [8 ]  0.00000000      
$$ SHIM_SETTING [9 ]  0.00000000      
$$ SHIM_SETTING [10]  -1880.00000000  
$$ SHIM_SETTING [11]  3470.00000000   
$$ SHIM_SETTING [12]  -4904.00000000  
$$ SHIM_SETTING [13]  5374.00000000   
$$ SHIM_SETTING [14]  0.00000000      
$$ SHIM_SETTING [15]  9975.96044685   
$$ SHIM_SETTING [16]  12083.37020487  
$$ SHIM_SETTING [17]  -7657.15512848  
$$ SHIM_SETTING [18]  -4107.95234555  
$$ SHIM_SETTING [19]  -7156.58111301  
$$ SHIM_SETTING [20]  4443.92556161   
$$ SHIM_SETTING [21]  10221.98930466  
$$ SHIM_SETTING [22]  -8209.01595853  
$$ SHIM_SETTING [23]  -2569.32694094  
$$ SHIM_SETTING [24]  -6172.42909478  
$$ SHIM_SETTING [25]  10819.27443599  
$$ SHIM_SETTING [26]  -3197.59177302  
$$ SHIM_SETTING [27]  0.00000000      
$$ SHIM_SETTING [28]  139.29739577    
$$ SHIM_SETTING [29]  8011.71976637   
$$ SHIM_SETTING [30]  -4590.29123364  
$$ SHIM_SETTING [31]  2870.68983379   
$$ SHIM_SETTING [32]  2522.17929829   
$$ SHIM_SETTING [33]  12187.00862412  
$$ SHIM_SETTING [34]  -3838.32437588  
$$ SHIM_SETTING [35]  3784.90534612   
$$ SHIM_SETTING [36]  -13158.31665388 
$$ SHIM_SETTING [37]  2676.96534695   
$$ SHIM_SETTING [38]  -1619.37607715  
$$ SHIM_SETTING [39]  -506.07728411   
$$ SHIM_SETTING [40]  0.00000000      
##$RELAX= 
##$BRUKER FILE EXP=uxnmr.par
$$ ##TITLE= Parameter file, TOPSPIN		Version 2.1
$$ ##JCAMPDX= 5.0
$$ ##DATATYPE= Parameter Values
$$ ##NPOINTS= 531	$$ modification sequence number
$$ ##ORIGIN= Bruker BioSpin GmbH
$$ ##OWNER= nmrsu
$$ $$ 2016-10-18 12:46:49.163 +0200  NMR_mess@av600.nmr.uni-koeln.de
$$ $$ /opt/topspin/conf/instr/spect/uxnmr.par
$$ $$ process /opt/topspin/prog/mod/confamp
$$ ##$ACB= 0
$$ ##$ACBTAT= (0..15)
0 88 72 88 50 0 0 0 0 0 0 0 0 0 0 0
$$ ##$ACBTBA= (0..15)
0 0 0 0 0 0 0 0 0 0 0 0 0 0 0 0
$$ ##$ACBTBLK= (0..15)
0 1 1 1 0 0 0 0 0 0 0 0 0 0 0 0
$$ ##$ACBTCTL= (0..15)
0 6 6 6 6 0 0 0 0 0 0 0 0 0 0 0
$$ ##$ACBTDI= (0..15)
0 -1779670023 -1779670024 -1779670024 -1779670024 0 0 0 0 0 0 0 0 0 0 0
$$ ##$ACBTDM= (0..15)
0 10 25 10 10 0 0 0 0 0 0 0 0 0 0 0
$$ ##$ACBTFHI= (0..15)
0 365 600 365 92 0 0 0 0 0 0 0 0 0 0 0
$$ ##$ACBTFL= (0..15)
0 248 248 248 88 0 0 0 0 0 0 0 0 0 0 0
$$ ##$ACBTFLO= (0..15)
0 6 180 6 30 0 0 0 0 0 0 0 0 0 0 0
$$ ##$ACBTINP= (0..15)
0 3 2 1 9 0 0 0 0 0 0 0 0 0 0 0
$$ ##$ACBTOUT= (0..15)
0 1 1 2 3 0 0 0 0 0 0 0 0 0 0 0
$$ ##$ACBTPO= (0..15)
0 300000 100000 300000 150000 0 0 0 0 0 0 0 0 0 0 0
$$ ##$ACBTPW= (0..15)
0 100 100 100 5 0 0 0 0 0 0 0 0 0 0 0
$$ ##$ACBTSB= (0..15)
0 0 0 0 0 0 0 0 0 0 0 0 0 0 0 0
$$ ##$ACBTY= <no>
$$ ##$AQSBDCH= (0..95)
0 0 0 0 0 0 0 0 255 255 255 255 255 255 255 255 255 255 255 255 255 255
255 255 255 255 255 255 255 255 255 255 255 255 255 255 255 255 255 255
255 255 255 255 255 255 255 255 255 255 255 255 255 255 255 255 255 255
255 255 255 255 255 255 255 255 255 255 255 255 255 255 255 255 255 255
255 255 255 255 255 255 255 255 255 255 255 255 255 255 255 255 255 255
255 255
$$ ##$AQSBDHW= (0..95)
3 1 8 8 8 0 0 0 255 255 255 255 255 255 255 255 255 255 255 255 255 255
255 255 255 255 255 255 255 255 255 255 255 255 255 255 255 255 255 255
255 255 255 255 255 255 255 255 255 255 255 255 255 255 255 255 255 255
255 255 255 255 255 255 255 255 255 255 255 255 255 255 255 255 255 255
255 255 255 255 255 255 255 255 255 255 255 255 255 255 255 255 255 255
255 255
$$ ##$AQSBDID= (0..95)
82 88 83 83 83 80 66 66 255 255 255 255 255 255 255 255 255 255 255 255
255 255 255 255 255 255 255 255 255 255 255 255 255 255 255 255 255 255
255 255 255 255 255 255 255 255 255 255 255 255 255 255 255 255 255 255
255 255 255 255 255 255 255 255 255 255 255 255 255 255 255 255 255 255
255 255 255 255 255 255 255 255 255 255 255 255 255 255 255 255 255 255
255 255 255 255
$$ ##$AQSBDNO= (0..95)
1 1 1 2 3 1 1 1 255 255 255 255 255 255 255 255 255 255 255 255 255 255
255 255 255 255 255 255 255 255 255 255 255 255 255 255 255 255 255 255
255 255 255 255 255 255 255 255 255 255 255 255 255 255 255 255 255 255
255 255 255 255 255 255 255 255 255 255 255 255 255 255 255 255 255 255
255 255 255 255 255 255 255 255 255 255 255 255 255 255 255 255 255 255
255 255
$$ ##$AQSBDSL= (0..95)
2 3 4 5 6 21 23 25 255 255 255 255 255 255 255 255 255 255 255 255 255
255 255 255 255 255 255 255 255 255 255 255 255 255 255 255 255 255 255
255 255 255 255 255 255 255 255 255 255 255 255 255 255 255 255 255 255
255 255 255 255 255 255 255 255 255 255 255 255 255 255 255 255 255 255
255 255 255 255 255 255 255 255 255 255 255 255 255 255 255 255 255 255
255 255 255
$$ ##$AQSBDTY= (0..95)
66 192 25 25 25 207 198 7 255 255 255 255 255 255 255 255 255 255 255 255
255 255 255 255 255 255 255 255 255 255 255 255 255 255 255 255 255 255
255 255 255 255 255 255 255 255 255 255 255 255 255 255 255 255 255 255
255 255 255 255 255 255 255 255 255 255 255 255 255 255 255 255 255 255
255 255 255 255 255 255 255 255 255 255 255 255 255 255 255 255 255 255
255 255 255 255
$$ ##$AQSBUAD= (0..95)
16 52 36 37 38 33 32 32 255 255 255 255 255 255 255 255 255 255 255 255
255 255 255 255 255 255 255 255 255 255 255 255 255 255 255 255 255 255
255 255 255 255 255 255 255 255 255 255 255 255 255 255 255 255 255 255
255 255 255 255 255 255 255 255 255 255 255 255 255 255 255 255 255 255
255 255 255 255 255 255 255 255 255 255 255 255 255 255 255 255 255 255
255 255 255 255
$$ ##$AQSECL= (0..95)
3 1 2 2 2 0 1 255 255 255 255 255 255 255 255 255 255 255 255 255 255 255
255 255 255 255 255 255 255 255 255 255 255 255 255 255 255 255 255 255
255 255 255 255 255 255 255 255 255 255 255 255 255 255 255 255 255 255
255 255 255 255 255 255 255 255 255 255 255 255 255 255 255 255 255 255
255 255 255 255 255 255 255 255 255 255 255 255 255 255 255 255 255 255
255 255
$$ ##$AQSECLS= (0..95)
0 0 0 0 0 0 2 255 255 255 255 255 255 255 255 255 255 255 255 255 255 255
255 255 255 255 255 255 255 255 255 255 255 255 255 255 255 255 255 255
255 255 255 255 255 255 255 255 255 255 255 255 255 255 255 255 255 255
255 255 255 255 255 255 255 255 255 255 255 255 255 255 255 255 255 255
255 255 255 255 255 255 255 255 255 255 255 255 255 255 255 255 255 255
255 255
$$ ##$AQSSPLT= no
$$ ##$ATT19F= (0..1)
0 0
$$ ##$ATT1H= (0..1)
0 0
$$ ##$ATT3H= (0..1)
0 0
$$ ##$ATTX= (0..1)
0 0
$$ ##$ATTY= (0..1)
0 0
$$ ##$ATTZ= (0..1)
0 0
$$ ##$BACSAIR= yes
$$ ##$BACSCAP= 0
$$ ##$BACSDEL= 10
$$ ##$BACSFCM= no
$$ ##$BACSOPT= <>
$$ ##$BACSTY= <no>
$$ ##$BARPTY= <no>
$$ ##$BFREQ= 600.2
$$ ##$BGAETH1= <no>
$$ ##$BGAETH2= <no>
$$ ##$BGAETH3= <no>
$$ ##$BGAETH4= <no>
$$ ##$BGAETH5= <no>
$$ ##$BGAETH6= <no>
$$ ##$BGAETH7= <no>
$$ ##$BGAETH8= <no>
$$ ##$BIRDS= yes
$$ ##$BMPC= 0
$$ ##$BMPCTY= <no>
$$ ##$BPSUTY= <no>
$$ ##$BSMS= 2
$$ ##$BSMSETH= <149.236.99.20>
$$ ##$BSMSTY= <no>
$$ ##$CFASMOD= (0..7)
1 1 1 1 1 1 1 1
$$ ##$CFASMUL= (0..7)
1 1 1 1 1 1 1 1
$$ ##$CNFTXDR= (0..7)
6 6 6 0 0 0 0 0
$$ ##$COMDIG2= 0
$$ ##$CPDBTY= <no>
$$ ##$CRCOTY= <no>
$$ ##$CSW1= (0..31)
3 0 0 2 2 2 9 0 0 0 0 0 0 0 0 0 0 0 0 0 0 0 0 0 0 0 0 0 0 0 0 0
$$ ##$CSW2= (0..31)
0 0 0 1 1 1 0 0 0 0 0 0 0 0 0 0 0 0 0 0 0 0 0 0 0 0 0 0 0 0 0 0
$$ ##$CSWNUM= (0..7)
3 4 0 0 0 0 0 0
$$ ##$DATSTAT= no
$$ ##$DIGI140= (0..7)
0 0 0 0 0 0 0 0
$$ ##$DIGIB12= (0..7)
0 0 0 0 0 0 0 0
$$ ##$DIGIB16= (0..7)
0 0 0 0 0 0 0 0
$$ ##$DIGIFA= (0..7)
0 0 0 0 0 0 0 0
$$ ##$DIGIHA= (0..7)
0 0 0 0 0 0 0 0
$$ ##$DIGIHAF= (0..7)
0 0 0 0 0 0 0 0
$$ ##$DIGIHRD= (0..7)
0 0 0 0 0 0 0 0
$$ ##$DIGIIA= (0..7)
0 0 0 0 0 0 0 0
$$ ##$DIGIO16= (0..7)
0 0 0 0 0 0 0 0
$$ ##$DIGISA= (0..7)
0 0 0 0 0 0 0 0
$$ ##$DIGISAF= (0..7)
0 0 0 0 0 0 0 0
$$ ##$DIGISL= (0..7)
0 0 0 0 0 0 0 0
$$ ##$DIGITYI= (0..7)
0 0 0 0 0 0 0 0
$$ ##$DIGITYP= (0..7)
0 0 0 0 0 0 0 0
$$ ##$DIGITZ= 0
$$ ##$DRU= yes
$$ ##$DRUETH01= <149.236.99.89>
$$ ##$DRUETH02= <no>
$$ ##$DRUETH03= <no>
$$ ##$DRUETH04= <no>
$$ ##$DRUETH05= <no>
$$ ##$DRUETH06= <no>
$$ ##$DRUETH07= <no>
$$ ##$DRUETH08= <no>
$$ ##$DRUETH09= <no>
$$ ##$DRUETH10= <no>
$$ ##$DRUETH11= <no>
$$ ##$DRUETH12= <no>
$$ ##$DRUETH13= <no>
$$ ##$DRUETH14= <no>
$$ ##$DRUETH15= <no>
$$ ##$DRUETH16= <no>
$$ ##$DRUETH17= <no>
$$ ##$DRUETH18= <no>
$$ ##$DRUETH19= <no>
$$ ##$DRUETH20= <no>
$$ ##$DRUETH21= <no>
$$ ##$DRUETH22= <no>
$$ ##$DRUETH23= <no>
$$ ##$DRUETH24= <no>
$$ ##$DRUETH25= <no>
$$ ##$DRUETH26= <no>
$$ ##$DRUETH27= <no>
$$ ##$DRUETH28= <no>
$$ ##$DRUETH29= <no>
$$ ##$DRUETH30= <no>
$$ ##$DRUETH31= <no>
$$ ##$DRUETH32= <no>
$$ ##$FCUMEM= (0..7)
16777208 16777208 16777208 0 0 0 0 0
$$ ##$FCUPAL= (0..7)
0 0 0 0 0 0 0 0
$$ ##$FGSVTY= <no>
$$ ##$FQMIX= 0
$$ ##$FUNCMOD= <>
$$ ##$GCUTYPE= 10
$$ ##$GPREDEL= 1
$$ ##$GPSCUTY= <no>
$$ ##$GRADRES= 5
$$ ##$GTUTY= <no>
$$ ##$HFAC= 3
$$ ##$HPCU= 0
$$ ##$HPCUTY= <no>
$$ ##$HPTXLP= (0..3)
-1 -1 -1 -1
$$ ##$HPTXPI= (0..3)
0 0 0 0
$$ ##$HPTXPO= (0..3)
0 0 0 0
$$ ##$HPTXTY= (0..3)
0 0 0 0
$$ ##$IF451= 0
$$ ##$IFREQ= 1
$$ ##$INTFPR= 0
$$ ##$IPSOETH= <149.236.99.251>
$$ ##$LOCKTY= <no>
$$ ##$LOCSWID= 0
$$ ##$LOCSWIF= 0
$$ ##$M2FAC= 0
$$ ##$MAS= 0
$$ ##$MASETIME= 10
$$ ##$MASITIME= 10
$$ ##$MASTY= <no>
$$ ##$MAS_CT= 0
$$ ##$MAS_SG= 0
$$ ##$MAS_TO= 0
$$ ##$MEMPRM= 0
$$ ##$MHFAC= 0
$$ ##$MXFAC= 0
$$ ##$NAMPD1= <1H LNA>
$$ ##$NAMPD10= <>
$$ ##$NAMPD11= <>
$$ ##$NAMPD12= <>
$$ ##$NAMPD13= <>
$$ ##$NAMPD14= <>
$$ ##$NAMPD15= <>
$$ ##$NAMPD16= <>
$$ ##$NAMPD2= <XBB19F 2HS>
$$ ##$NAMPD3= <XBB19F 2HP>
$$ ##$NAMPD4= <2H>
$$ ##$NAMPD5= <>
$$ ##$NAMPD6= <>
$$ ##$NAMPD7= <>
$$ ##$NAMPD8= <>
$$ ##$NAMPD9= <>
$$ ##$NFCU= 3
$$ ##$NMRCH= 2
$$ ##$NMRMEM= 16384
$$ ##$NRCU= 1
$$ ##$NROUT= 0
$$ ##$NSGU= 3
$$ ##$PAMPF1= (0..15)
75 24 64 64 96 0 0 0 0 0 0 0 0 0 0 0
$$ ##$PAMPF2= (0..15)
0 0 0 0 0 0 0 0 0 0 0 0 0 0 0 0
$$ ##$PAMPF3= (0..15)
0 0 0 0 0 0 0 0 0 0 0 0 0 0 0 0
$$ ##$PAMPF4= (0..15)
0 0 0 0 0 0 0 0 0 0 0 0 0 0 0 0
$$ ##$PAMPF5= (0..15)
0 0 0 0 0 0 0 0 0 0 0 0 0 0 0 0
$$ ##$PAMPF6= (0..15)
0 0 0 0 0 0 0 0 0 0 0 0 0 0 0 0
$$ ##$PAMPF7= (0..15)
0 0 0 0 0 0 0 0 0 0 0 0 0 0 0 0
$$ ##$PAMPF8= (0..15)
0 0 0 0 0 0 0 0 0 0 0 0 0 0 0 0
$$ ##$PH4= 0
$$ ##$PHF4TY= <no>
$$ ##$POWCHK= no
$$ ##$PRAMD1= (0..7)
2 0 0 536870912 0 0 0 0
$$ ##$PRAMD10= (0..7)
0 0 0 0 0 0 0 0
$$ ##$PRAMD11= (0..7)
0 0 0 0 0 0 0 0
$$ ##$PRAMD12= (0..7)
0 0 0 0 0 0 0 0
$$ ##$PRAMD13= (0..7)
0 0 0 0 0 0 0 0
$$ ##$PRAMD14= (0..7)
0 0 0 0 0 0 0 0
$$ ##$PRAMD15= (0..7)
0 0 0 0 0 0 0 0
$$ ##$PRAMD16= (0..7)
0 0 0 0 0 0 0 0
$$ ##$PRAMD17= (0..7)
0 0 0 0 0 0 0 0
$$ ##$PRAMD18= (0..7)
0 0 0 0 0 0 0 0
$$ ##$PRAMD19= (0..7)
0 0 0 0 0 0 0 0
$$ ##$PRAMD2= (0..7)
2147483644 2131230719 2147483647 671088639 0 0 0 0
$$ ##$PRAMD20= (0..7)
0 0 0 0 0 0 0 0
$$ ##$PRAMD21= (0..7)
0 0 0 0 0 0 0 0
$$ ##$PRAMD3= (0..7)
2147483644 2147483647 2147483647 671088639 0 0 0 0
$$ ##$PRAMD4= (0..7)
0 1048576 0 536870912 0 1048576 0 536870912
$$ ##$PRAMD5= (0..7)
0 0 0 0 0 0 0 0
$$ ##$PRAMD6= (0..7)
0 0 0 0 0 0 0 0
$$ ##$PRAMD7= (0..7)
0 0 0 0 0 0 0 0
$$ ##$PRAMD8= (0..7)
0 0 0 0 0 0 0 0
$$ ##$PRAMD9= (0..7)
0 0 0 0 0 0 0 0
$$ ##$PRAMLED= (0..1)
15 15
$$ ##$PRAMP1= <tty10>
$$ ##$PRAMP2= <no>
$$ ##$PRAMP3= <no>
$$ ##$PRAMP4= <no>
$$ ##$PRAMP5= <no>
$$ ##$PRAMP6= <no>
$$ ##$PRAMP7= <no>
$$ ##$PRAMP8= <no>
$$ ##$PRAMPTP= 1
$$ ##$PREPTY= <no>
$$ ##$PRESHLD= 0
$$ ##$PTS160= -1
$$ ##$PTSA2X= (0..7)
0 0 0 0 0 0 0 0
$$ ##$PTSF2X= (0..7)
0 0 0 0 0 0 0 0
$$ ##$PTSFMX= (0..7)
643.52499 643.52499 643.52499 0 0 0 0 0
$$ ##$PULCHK= no
$$ ##$RCUCDS= (0..7)
0 0 0 0 0 0 0 0
$$ ##$RCUCFS= (0..7)
0 0 0 0 0 0 0 0
$$ ##$RCUCSS= (0..7)
0 0 0 0 0 0 0 0
$$ ##$RCUI2C1= (0..7)
0 0 0 0 0 0 0 0
$$ ##$RCUI2C2= (0..7)
0 0 0 0 0 0 0 0
$$ ##$RCUI2C3= (0..7)
0 0 0 0 0 0 0 0
$$ ##$RCUI2C4= (0..7)
0 0 0 0 0 0 0 0
$$ ##$RCUI2C5= (0..7)
0 0 0 0 0 0 0 0
$$ ##$RCUI2C6= (0..7)
0 0 0 0 0 0 0 0
$$ ##$RCUI2C7= (0..7)
0 0 0 0 0 0 0 0
$$ ##$RCUI2C8= (0..7)
0 0 0 0 0 0 0 0
$$ ##$RDCU= 0
$$ ##$RFSVTY= <no>
$$ ##$RGTYPE= (0..31)
9 0 0 0 0 0 0 0 0 0 0 0 0 0 0 0 0 0 0 0 0 0 0 0 0 0 0 0 0 0 0 0
$$ ##$RG_max= (0..31)
46300 0 0 0 0 0 0 0 0 0 0 0 0 0 0 0 0 0 0 0 0 0 0 0 0 0 0 0 0 0 0 0
$$ ##$RG_min= (0..31)
0.25 0 0 0 0 0 0 0 0 0 0 0 0 0 0 0 0 0 0 0 0 0 0 0 0 0 0 0 0 0 0 0
$$ ##$RG_tab1= (0..255)
0.25 0.28 0.32 0.35 0.4 0.44 0.5 0.56 0.64 0.7 0.8 0.89 1 1.12 1.28 1.4
1.6 1.78 2 2.25 2.56 2.8 3.2 3.56 4 4.5 5 5.6 6.35 7.12 8 9 10 11.3 12.7
14.2 16 18 20.2 22.6 25.4 28.5 32 36 40.3 45.2 50.8 57 64 71.8 80.6 90.5
101 114 128 144 161 181 203 228 256 287 322 362 406 456 512 575 645 724
812 912 1030 1150 1290 1440 1620 1820 2050 -1 -1 -1 -1 -1 -1 -1 -1 -1 -1
-1 -1 -1 -1 -1 -1 -1 -1 -1 -1 -1 -1 -1 -1 -1 -1 -1 -1 -1 -1 -1 -1 -1 -1
-1 -1 -1 -1 -1 -1 -1 -1 -1 -1 -1 -1 -1 -1 -1 -1 -1 -1 -1 -1 -1 -1 -1 -1
-1 -1 -1 -1 -1 -1 -1 -1 -1 -1 -1 -1 -1 -1 -1 -1 -1 -1 -1 -1 -1 -1 -1 -1
-1 -1 -1 -1 -1 -1 -1 -1 -1 -1 -1 -1 -1 -1 -1 -1 -1 -1 -1 -1 -1 -1 -1 -1
-1 -1 -1 -1 -1 -1 -1 -1 -1 -1 -1 -1 -1 -1 -1 -1 -1 -1 -1 -1 -1 -1 -1 -1
-1 -1 -1 -1 -1 -1 -1 -1 -1 -1 -1 -1 -1 -1 -1 -1 -1 -1 -1 -1 -1 -1 -1 -1
-1 -1 -1 -1 -1 -1 -1 -1 -1 -1 -1 -1 -1 -1 -1 -1 -1 -1 -1 -1 -1 -1 -1
$$ ##$RG_tab2= (0..255)
-1 -1 -1 -1 -1 -1 -1 -1 -1 -1 -1 -1 -1 -1 -1 -1 -1 -1 -1 -1 -1 -1 -1 -1
-1 -1 -1 -1 -1 -1 -1 -1 -1 -1 -1 -1 -1 -1 -1 -1 -1 -1 -1 -1 -1 -1 -1 -1
-1 -1 -1 -1 -1 -1 -1 -1 -1 -1 -1 -1 -1 -1 -1 -1 -1 -1 -1 -1 -1 -1 -1 -1
-1 -1 -1 -1 -1 -1 -1 -1 -1 -1 -1 -1 -1 -1 -1 -1 -1 -1 -1 -1 -1 -1 -1 -1
-1 -1 -1 -1 -1 -1 -1 -1 -1 -1 -1 -1 -1 -1 -1 -1 -1 -1 -1 -1 -1 -1 -1 -1
-1 -1 -1 -1 -1 -1 -1 -1 -1 -1 -1 -1 -1 -1 -1 -1 -1 -1 -1 -1 -1 -1 -1 -1
-1 -1 -1 -1 -1 -1 -1 -1 -1 -1 -1 -1 -1 -1 -1 -1 -1 -1 -1 -1 -1 -1 -1 -1
-1 -1 -1 -1 -1 -1 -1 -1 -1 -1 -1 -1 -1 -1 -1 -1 -1 -1 -1 -1 -1 -1 -1 -1
-1 -1 -1 -1 -1 -1 -1 -1 -1 -1 -1 -1 -1 -1 -1 -1 -1 -1 -1 -1 -1 -1 -1 -1
-1 -1 -1 -1 -1 -1 -1 -1 -1 -1 -1 -1 -1 -1 -1 -1 -1 -1 -1 -1 -1 -1 -1 -1
-1 -1 -1 -1 -1 -1 -1 -1 -1 -1 -1 -1 -1 -1 -1 -1
$$ ##$RG_tab3= (0..255)
-1 -1 -1 -1 -1 -1 -1 -1 -1 -1 -1 -1 -1 -1 -1 -1 -1 -1 -1 -1 -1 -1 -1 -1
-1 -1 -1 -1 -1 -1 -1 -1 -1 -1 -1 -1 -1 -1 -1 -1 -1 -1 -1 -1 -1 -1 -1 -1
-1 -1 -1 -1 -1 -1 -1 -1 -1 -1 -1 -1 -1 -1 -1 -1 -1 -1 -1 -1 -1 -1 -1 -1
-1 -1 -1 -1 -1 -1 -1 -1 -1 -1 -1 -1 -1 -1 -1 -1 -1 -1 -1 -1 -1 -1 -1 -1
-1 -1 -1 -1 -1 -1 -1 -1 -1 -1 -1 -1 -1 -1 -1 -1 -1 -1 -1 -1 -1 -1 -1 -1
-1 -1 -1 -1 -1 -1 -1 -1 -1 -1 -1 -1 -1 -1 -1 -1 -1 -1 -1 -1 -1 -1 -1 -1
-1 -1 -1 -1 -1 -1 -1 -1 -1 -1 -1 -1 -1 -1 -1 -1 -1 -1 -1 -1 -1 -1 -1 -1
-1 -1 -1 -1 -1 -1 -1 -1 -1 -1 -1 -1 -1 -1 -1 -1 -1 -1 -1 -1 -1 -1 -1 -1
-1 -1 -1 -1 -1 -1 -1 -1 -1 -1 -1 -1 -1 -1 -1 -1 -1 -1 -1 -1 -1 -1 -1 -1
-1 -1 -1 -1 -1 -1 -1 -1 -1 -1 -1 -1 -1 -1 -1 -1 -1 -1 -1 -1 -1 -1 -1 -1
-1 -1 -1 -1 -1 -1 -1 -1 -1 -1 -1 -1 -1 -1 -1 -1
$$ ##$RG_tab4= (0..255)
-1 -1 -1 -1 -1 -1 -1 -1 -1 -1 -1 -1 -1 -1 -1 -1 -1 -1 -1 -1 -1 -1 -1 -1
-1 -1 -1 -1 -1 -1 -1 -1 -1 -1 -1 -1 -1 -1 -1 -1 -1 -1 -1 -1 -1 -1 -1 -1
-1 -1 -1 -1 -1 -1 -1 -1 -1 -1 -1 -1 -1 -1 -1 -1 -1 -1 -1 -1 -1 -1 -1 -1
-1 -1 -1 -1 -1 -1 -1 -1 -1 -1 -1 -1 -1 -1 -1 -1 -1 -1 -1 -1 -1 -1 -1 -1
-1 -1 -1 -1 -1 -1 -1 -1 -1 -1 -1 -1 -1 -1 -1 -1 -1 -1 -1 -1 -1 -1 -1 -1
-1 -1 -1 -1 -1 -1 -1 -1 -1 -1 -1 -1 -1 -1 -1 -1 -1 -1 -1 -1 -1 -1 -1 -1
-1 -1 -1 -1 -1 -1 -1 -1 -1 -1 -1 -1 -1 -1 -1 -1 -1 -1 -1 -1 -1 -1 -1 -1
-1 -1 -1 -1 -1 -1 -1 -1 -1 -1 -1 -1 -1 -1 -1 -1 -1 -1 -1 -1 -1 -1 -1 -1
-1 -1 -1 -1 -1 -1 -1 -1 -1 -1 -1 -1 -1 -1 -1 -1 -1 -1 -1 -1 -1 -1 -1 -1
-1 -1 -1 -1 -1 -1 -1 -1 -1 -1 -1 -1 -1 -1 -1 -1 -1 -1 -1 -1 -1 -1 -1 -1
-1 -1 -1 -1 -1 -1 -1 -1 -1 -1 -1 -1 -1 -1 -1 -1
$$ ##$RG_tab5= (0..255)
-1 -1 -1 -1 -1 -1 -1 -1 -1 -1 -1 -1 -1 -1 -1 -1 -1 -1 -1 -1 -1 -1 -1 -1
-1 -1 -1 -1 -1 -1 -1 -1 -1 -1 -1 -1 -1 -1 -1 -1 -1 -1 -1 -1 -1 -1 -1 -1
-1 -1 -1 -1 -1 -1 -1 -1 -1 -1 -1 -1 -1 -1 -1 -1 -1 -1 -1 -1 -1 -1 -1 -1
-1 -1 -1 -1 -1 -1 -1 -1 -1 -1 -1 -1 -1 -1 -1 -1 -1 -1 -1 -1 -1 -1 -1 -1
-1 -1 -1 -1 -1 -1 -1 -1 -1 -1 -1 -1 -1 -1 -1 -1 -1 -1 -1 -1 -1 -1 -1 -1
-1 -1 -1 -1 -1 -1 -1 -1 -1 -1 -1 -1 -1 -1 -1 -1 -1 -1 -1 -1 -1 -1 -1 -1
-1 -1 -1 -1 -1 -1 -1 -1 -1 -1 -1 -1 -1 -1 -1 -1 -1 -1 -1 -1 -1 -1 -1 -1
-1 -1 -1 -1 -1 -1 -1 -1 -1 -1 -1 -1 -1 -1 -1 -1 -1 -1 -1 -1 -1 -1 -1 -1
-1 -1 -1 -1 -1 -1 -1 -1 -1 -1 -1 -1 -1 -1 -1 -1 -1 -1 -1 -1 -1 -1 -1 -1
-1 -1 -1 -1 -1 -1 -1 -1 -1 -1 -1 -1 -1 -1 -1 -1 -1 -1 -1 -1 -1 -1 -1 -1
-1 -1 -1 -1 -1 -1 -1 -1 -1 -1 -1 -1 -1 -1 -1 -1
$$ ##$RG_tab6= (0..255)
-1 -1 -1 -1 -1 -1 -1 -1 -1 -1 -1 -1 -1 -1 -1 -1 -1 -1 -1 -1 -1 -1 -1 -1
-1 -1 -1 -1 -1 -1 -1 -1 -1 -1 -1 -1 -1 -1 -1 -1 -1 -1 -1 -1 -1 -1 -1 -1
-1 -1 -1 -1 -1 -1 -1 -1 -1 -1 -1 -1 -1 -1 -1 -1 -1 -1 -1 -1 -1 -1 -1 -1
-1 -1 -1 -1 -1 -1 -1 -1 -1 -1 -1 -1 -1 -1 -1 -1 -1 -1 -1 -1 -1 -1 -1 -1
-1 -1 -1 -1 -1 -1 -1 -1 -1 -1 -1 -1 -1 -1 -1 -1 -1 -1 -1 -1 -1 -1 -1 -1
-1 -1 -1 -1 -1 -1 -1 -1 -1 -1 -1 -1 -1 -1 -1 -1 -1 -1 -1 -1 -1 -1 -1 -1
-1 -1 -1 -1 -1 -1 -1 -1 -1 -1 -1 -1 -1 -1 -1 -1 -1 -1 -1 -1 -1 -1 -1 -1
-1 -1 -1 -1 -1 -1 -1 -1 -1 -1 -1 -1 -1 -1 -1 -1 -1 -1 -1 -1 -1 -1 -1 -1
-1 -1 -1 -1 -1 -1 -1 -1 -1 -1 -1 -1 -1 -1 -1 -1 -1 -1 -1 -1 -1 -1 -1 -1
-1 -1 -1 -1 -1 -1 -1 -1 -1 -1 -1 -1 -1 -1 -1 -1 -1 -1 -1 -1 -1 -1 -1 -1
-1 -1 -1 -1 -1 -1 -1 -1 -1 -1 -1 -1 -1 -1 -1 -1
$$ ##$RG_tab7= (0..255)
-1 -1 -1 -1 -1 -1 -1 -1 -1 -1 -1 -1 -1 -1 -1 -1 -1 -1 -1 -1 -1 -1 -1 -1
-1 -1 -1 -1 -1 -1 -1 -1 -1 -1 -1 -1 -1 -1 -1 -1 -1 -1 -1 -1 -1 -1 -1 -1
-1 -1 -1 -1 -1 -1 -1 -1 -1 -1 -1 -1 -1 -1 -1 -1 -1 -1 -1 -1 -1 -1 -1 -1
-1 -1 -1 -1 -1 -1 -1 -1 -1 -1 -1 -1 -1 -1 -1 -1 -1 -1 -1 -1 -1 -1 -1 -1
-1 -1 -1 -1 -1 -1 -1 -1 -1 -1 -1 -1 -1 -1 -1 -1 -1 -1 -1 -1 -1 -1 -1 -1
-1 -1 -1 -1 -1 -1 -1 -1 -1 -1 -1 -1 -1 -1 -1 -1 -1 -1 -1 -1 -1 -1 -1 -1
-1 -1 -1 -1 -1 -1 -1 -1 -1 -1 -1 -1 -1 -1 -1 -1 -1 -1 -1 -1 -1 -1 -1 -1
-1 -1 -1 -1 -1 -1 -1 -1 -1 -1 -1 -1 -1 -1 -1 -1 -1 -1 -1 -1 -1 -1 -1 -1
-1 -1 -1 -1 -1 -1 -1 -1 -1 -1 -1 -1 -1 -1 -1 -1 -1 -1 -1 -1 -1 -1 -1 -1
-1 -1 -1 -1 -1 -1 -1 -1 -1 -1 -1 -1 -1 -1 -1 -1 -1 -1 -1 -1 -1 -1 -1 -1
-1 -1 -1 -1 -1 -1 -1 -1 -1 -1 -1 -1 -1 -1 -1 -1
$$ ##$RG_tab8= (0..255)
-1 -1 -1 -1 -1 -1 -1 -1 -1 -1 -1 -1 -1 -1 -1 -1 -1 -1 -1 -1 -1 -1 -1 -1
-1 -1 -1 -1 -1 -1 -1 -1 -1 -1 -1 -1 -1 -1 -1 -1 -1 -1 -1 -1 -1 -1 -1 -1
-1 -1 -1 -1 -1 -1 -1 -1 -1 -1 -1 -1 -1 -1 -1 -1 -1 -1 -1 -1 -1 -1 -1 -1
-1 -1 -1 -1 -1 -1 -1 -1 -1 -1 -1 -1 -1 -1 -1 -1 -1 -1 -1 -1 -1 -1 -1 -1
-1 -1 -1 -1 -1 -1 -1 -1 -1 -1 -1 -1 -1 -1 -1 -1 -1 -1 -1 -1 -1 -1 -1 -1
-1 -1 -1 -1 -1 -1 -1 -1 -1 -1 -1 -1 -1 -1 -1 -1 -1 -1 -1 -1 -1 -1 -1 -1
-1 -1 -1 -1 -1 -1 -1 -1 -1 -1 -1 -1 -1 -1 -1 -1 -1 -1 -1 -1 -1 -1 -1 -1
-1 -1 -1 -1 -1 -1 -1 -1 -1 -1 -1 -1 -1 -1 -1 -1 -1 -1 -1 -1 -1 -1 -1 -1
-1 -1 -1 -1 -1 -1 -1 -1 -1 -1 -1 -1 -1 -1 -1 -1 -1 -1 -1 -1 -1 -1 -1 -1
-1 -1 -1 -1 -1 -1 -1 -1 -1 -1 -1 -1 -1 -1 -1 -1 -1 -1 -1 -1 -1 -1 -1 -1
-1 -1 -1 -1 -1 -1 -1 -1 -1 -1 -1 -1 -1 -1 -1 -1
$$ ##$RG_tabA= (0..255)
0.25 0.28 0.32 0.35 0.4 0.44 0.5 0.56 0.64 0.7 0.8 0.89 1 1.12 1.28 1.4
1.6 1.78 2 2.25 2.56 2.8 3.2 3.56 4 4.5 5 5.6 6.35 7.12 8 9 10 11.3 12.7
14.2 16 18 20.2 22.6 25.4 28.5 32 36 40.3 45.2 50.8 57 64 71.8 80.6 90.5
101 114 128 144 161 181 203 228 256 287 322 362 406 456 512 575 645 724
812 912 1030 1150 1290 1440 1620 1820 2050 -1 -1 -1 -1 -1 -1 -1 -1 -1 -1
-1 -1 -1 -1 -1 -1 -1 -1 -1 -1 -1 -1 -1 -1 -1 -1 -1 -1 -1 -1 -1 -1 -1 -1
-1 -1 -1 -1 -1 -1 -1 -1 -1 -1 -1 -1 -1 -1 -1 -1 -1 -1 -1 -1 -1 -1 -1 -1
-1 -1 -1 -1 -1 -1 -1 -1 -1 -1 -1 -1 -1 -1 -1 -1 -1 -1 -1 -1 -1 -1 -1 -1
-1 -1 -1 -1 -1 -1 -1 -1 -1 -1 -1 -1 -1 -1 -1 -1 -1 -1 -1 -1 -1 -1 -1 -1
-1 -1 -1 -1 -1 -1 -1 -1 -1 -1 -1 -1 -1 -1 -1 -1 -1 -1 -1 -1 -1 -1 -1 -1
-1 -1 -1 -1 -1 -1 -1 -1 -1 -1 -1 -1 -1 -1 -1 -1 -1 -1 -1 -1 -1 -1 -1 -1
-1 -1 -1 -1 -1 -1 -1 -1 -1 -1 -1 -1 -1 -1 -1 -1 -1 -1 -1 -1 -1 -1 -1
$$ ##$ROUT14= (0..7)
0 0 0 0 0 0 0 0
$$ ##$ROUTER= -1
$$ ##$RX22TY= <no>
$$ ##$RXFMAX= (0..7)
647.5 -1 -1 -1 -1 -1 -1 -1
$$ ##$RXFMIN= (0..7)
5 -1 -1 -1 -1 -1 -1 -1
$$ ##$RXINTLV= (0..7)
1 0 0 0 0 0 0 0
$$ ##$RXMSTY= <no>
$$ ##$SCMTY= <no>
$$ ##$SGUC1= (0..15)
33 34 17 0 0 0 0 0 0 0 0 0 0 0 0 0
$$ ##$SGUC2= (0..15)
36 256 35 0 0 0 0 0 0 0 0 0 0 0 0 0
$$ ##$SPECTR= 10
$$ ##$SY2FLAG= 0
$$ ##$TFXNUM= 0
$$ ##$TRIPLO2= 0
$$ ##$VTUTY= <tty05>
$$ ##$WBREFAM= (0..15)
100 100 100 100 100 100 100 100 100 100 100 100 100 100 100 100
$$ ##$WBREFPH= (0..15)
0 0 0 0 0 0 0 0 0 0 0 0 0 0 0 0
$$ ##$XFAC= 2
$$ ##END=
##$RELAX= 
##$BRUKER FILE PROC=clevels
$$ ##TITLE= Parameter file, TopSpin 3.6.0
$$ ##JCAMPDX= 5.0
$$ ##DATATYPE= Parameter Values
$$ ##NPOINTS= 88	$$ modification sequence number
$$ ##ORIGIN= Bruker BioSpin GmbH
$$ ##OWNER= NMR_mess
$$ $$ 2021-05-17 11:02:57.558 +0200  nes@nmr-nesnote2
$$ $$ C:/Bruker/TopSpin3.6.0/data/luc/nmr/Displayer_2216-51-5_kombi/5/pdata/1/clevels
$$ $$ process C:\Bruker\TopSpin3.6.0\prog\mod\dataserver.exe
$$ ##$LEVELS= (0..255)
$$ -3149019.54157651 -1749455.30087583 -971919.611597687 -539955.339776489
$$ -299975.188764719 -166652.882647065 -92584.9348039249 -51436.0748910695
$$ 51436.0748910695 92584.9348039249 166652.882647065 299975.188764719 539955.339776489
$$ 971919.611597687 1749455.30087583 3149019.54157651 0 0 0 0 0 0 0 0 0 0
$$ 0 0 0 0 0 0 0 0 0 0 0 0 0 0 0 0 0 0 0 0 0 0 0 0 0 0 0 0 0 0 0 0 0 0 0 0
$$ 0 0 0 0 0 0 0 0 0 0 0 0 0 0 0 0 0 0 0 0 0 0 0 0 0 0 0 0 0 0 0 0 0 0 0 0
$$ 0 0 0 0 0 0 0 0 0 0 0 0 0 0 0 0 0 0 0 0 0 0 0 0 0 0 0 0 0 0 0 0 0 0 0 0
$$ 0 0 0 0 0 0 0 0 0 0 0 0 0 0 0 0 0 0 0 0 0 0 0 0 0 0 0 0 0 0 0 0 0 0 0 0
$$ 0 0 0 0 0 0 0 0 0 0 0 0 0 0 0 0 0 0 0 0 0 0 0 0 0 0 0 0 0 0 0 0 0 0 0 0
$$ 0 0 0 0 0 0 0 0 0 0 0 0 0 0 0 0 0 0 0 0 0 0 0 0 0 0 0 0 0 0 0 0 0 0 0 0
$$ 0 0 0 0 0 0 0 0 0 0 0 0 0 0
$$ ##$LEVSIGN= 3
$$ ##$MAXLEV= 8
$$ ##$METHOD= 0
$$ ##$NEGBASE= -3312
$$ ##$NEGINCR= 1.8
$$ ##$POSBASE= 3312
$$ ##$POSINCR= 1.8
$$ ##END=
##$RELAX= 
$$ Bruker specific parameters
$$ --------------------------
##$DATPATH= <C:\Bruker\TopSpin3.6.0\data\luc\nmr>
##$EXPNO= 5
##$NAME= <Displayer_2216-51-5_kombi>
##$PROCNO= 1
##$ACQT0= 1000000
##$AMP= (0..31)
100 100 100 100 100 100 100 100 100 100 100 100 100 100 100 100 100 100
100 100 100 100 100 100 100 100 100 100 100 100 100 100
##$AMPCOIL= (0..19)
0 0 0 0 0 0 0 0 0 0 0 0 0 0 0 0 0 0 0 0
##$ANAVPT= -1
##$AQSEQ= 0
##$AQ_mod= 3
##$AUNM= <au_getlcosy>
##$AUTOPOS= <>
##$BF1= 600.2
##$BF2= 600.2
##$BF3= 600.2
##$BF4= 600.24
##$BF5= 299.87
##$BF6= 299.87
##$BF7= 299.87
##$BF8= 299.87
##$BWFAC= (0..63)
0 0 0 0 0 0 0 0 0 0 0 0 0 0 0 0 0 0 0 0 0 0 0 0 0 0 0 0 0 0 0 0 0 0 0 0
0 0 0 0 0 0 0 0 0 0 0 0 0 0 0 0 0 0 0 0 0 0 0 0 0 0 0 0
##$BYTORDA= 0
##$CAGPARS= (0..11)
0 0 0 0 0 0 0 0 0 0 0 0
##$CHEMSTR= <none>
##$CNST= (0..63)
1 1 145 1 1 1 1 1 1 1 1 1 1 1 1 1 1 1 1 1 1 20 20 60 1 1 1 1 1 1 1 1 1
1 1 1 1 1 1 1 1 1 1 1 1 1 1 1 1 1 1 1 1 1 1 1 1 1 1 1 1 1 1 1
##$CPDPRG= (0..8)
<> <> <> <> <mlev> <mlev> <mlev> <mlev> <mlev>
##$D= (0..63)
3e-006 1.5 0 0 0 0 0 0 0 0 0 0.03 2e-005 4e-006 0 0 0.0005 0 0 0 0 0 0
0 0 0 0 0 0 0 0 0 0 0 0 0 0 0 0 0 0 0 0 0 0 0 0 0 0 0 0 0 0 0 0 0 0 0 0
0 0 0 0 0
##$DATE= 1480687813
##$DE= 6
##$DECBNUC= <off>
##$DECIM= 5845.33333333333
##$DECNUC= <off>
##$DECSTAT= 4
##$DIGMOD= 1
##$DIGTYP= 12
##$DQDMODE= 0
##$DR= 23
##$DS= 8
##$DSPFIRM= 0
##$DSPFVS= 20
##$DTYPA= 0
##$EXP= <hh_cosy_bbo.nes>
##$FCUCHAN= (0..9)
0 2 0 0 0 0 0 0 0 0
##$FL1= 90
##$FL2= 90
##$FL3= 90
##$FL4= 90
##$FN_INDIRECT= (0..7)
0 0 0 0 0 0 0 0
##$FOV= 20
##$FQ1LIST= <freqlist>
##$FQ2LIST= <freqlist>
##$FQ3LIST= <freqlist>
##$FQ4LIST= <freqlist>
##$FQ5LIST= <freqlist>
##$FQ6LIST= <freqlist>
##$FQ7LIST= <freqlist>
##$FQ8LIST= <freqlist>
##$FRQLO3= 1248814.8525
##$FRQLO3N= 0
##$FS= (0..7)
83 83 83 83 83 83 83 83
##$FTLPGN= 0
##$FW= 125000
##$FnILOOP= 0
##$FnMODE= 0
##$FnTYPE= 0
##$GPNAM= (0..31)
<SINE.100> <SINE.100> <SINE.100> <SINE.100> <SINE.100> <SINE.100> <SINE.100>
<SINE.100> <SINE.100> <SINE.100> <SINE.100> <SINE.100> <SINE.100> <SINE.100>
<SINE.100> <SINE.100> <SINE.100> <SINE.100> <SINE.100> <SINE.100> <SINE.100>
<SINE.100> <SINE.100> <SINE.100> <SINE.100> <SINE.100> <SINE.100> <SINE.100>
<SINE.100> <SINE.100> <SINE.100> <SINE.100>
##$GPX= (0..31)
0 0 0 0 0 0 0 0 0 0 0 0 0 0 0 0 0 0 0 0 0 0 0 0 0 0 0 0 0 0 0 0
##$GPY= (0..31)
0 0 0 0 0 0 0 0 0 0 0 0 0 0 0 0 0 0 0 0 0 0 0 0 0 0 0 0 0 0 0 0
##$GPZ= (0..31)
0 10 10 40 0 0 0 0 0 0 0 0 0 0 0 0 0 0 0 0 0 0 0 0 0 0 0 0 0 0 0 0
##$GRDPROG= <grad_out>
##$GRPDLY= 67.9850921630859
##$HDDUTY= 20
##$HDRATE= 20
##$HGAIN= (0..3)
0 0 0 0
##$HL1= 128
##$HL2= 90
##$HL3= 90
##$HL4= 90
##$HOLDER= 0
##$HPMOD= (0..7)
0 0 0 0 0 0 0 0
##$HPPRGN= 0
##$IN= (0..63)
0.00029225 0.001 0.001 0.001 0.001 0.001 0.001 0.001 0.001 0.001 0.001
0.001 0.001 0.001 0.001 0.001 0.001 0.001 0.001 0.001 0.001 0.001 0.001
0.001 0.001 0.001 0.001 0.001 0.001 0.001 0.001 0.001 0.001 0.001 0.001
0.001 0.001 0.001 0.001 0.001 0.001 0.001 0.001 0.001 0.001 0.001 0.001
0.001 0.001 0.001 0.001 0.001 0.001 0.001 0.001 0.001 0.001 0.001 0.001
0.001 0.001 0.001 0.001 0.001
##$INF= (0..7)
0 292.266657076667 0 0 0 0 0 0
##$INP= (0..63)
0 0 0 0 0 0 0 0 0 0 0 0 0 0 0 0 0 0 0 0 0 0 0 0 0 0 0 0 0 0 0 0 0 0 0 0
0 0 0 0 0 0 0 0 0 0 0 0 0 0 0 0 0 0 0 0 0 0 0 0 0 0 0 0
##$INSTRUM= <spect>
##$INTEGFAC= (0..63)
0 0 0 0 0 0 0 0 0 0 0 0 0 0 0 0 0 0 0 0 0 0 0 0 0 0 0 0 0 0 0 0 0 0 0 0
0 0 0 0 0 0 0 0 0 0 0 0 0 0 0 0 0 0 0 0 0 0 0 0 0 0 0 0
##$L= (0..31)
1 28 1 1 1 28 1 1 1 1 1 1 1 1 1 1 1 1 1 1 1 1 1 1 1 1 1 1 1 1 1 1
##$LFILTER= 200
##$LGAIN= 5
##$LINPSTP= 0
##$LOCKED= yes
##$LOCKFLD= 5606
##$LOCKGN= 104.146690368652
##$LOCKPOW= -29.9999942779541
##$LOCKPPM= 2.49000000953674
##$LOCNUC= <2H>
##$LOCPHAS= 95
##$LOCSHFT= yes
##$LOCSW= 0
##$LTIME= 0.25
##$MASR= 4200
##$MASRLST= <masrlst>
##$MULEXPNO= (0..15)
0 0 0 0 0 0 0 0 0 0 0 0 0 0 0 0
##$NBL= 1
##$NC= -7
##$NLOGCH= 3
##$NOVFLW= 0
##$NS= 2
##$NUC1= <1H>
##$NUC2= <off>
##$NUC3= <off>
##$NUC4= <off>
##$NUC5= <off>
##$NUC6= <off>
##$NUC7= <off>
##$NUC8= <off>
##$NUCLEUS= <off>
##$NUSLIST= <>
##$NusAMOUNT= 0
##$NusFPNZ= no
##$NusJSP= 0
##$NusSEED= 0
##$NusSPTYPE= 0
##$NusT2= 0
##$NusTD= 0
##$O1= 1380.46
##$O2= 3608.76
##$O3= 3608.76
##$O4= 3608.7580556341
##$O5= 200260000
##$O6= 200260000
##$O7= 200260000
##$O8= 200260000
##$OVERFLW= 0
##$P= (0..63)
14.5 14.5 22 100 13 16.5 25 50 13.2 100 0 0 0 22 22 2500 1000 2500 1800000
300000 25 0 0 0 0 0 2500 0 0 500 0 0 0 0 0 0 0 0 0 0 0 0 0 0 0 0 0 0 0
0 0 0 0 0 0 0 0 0 0 0 0 0 0 0
##$PACOIL= (0..15)
0 0 0 0 0 0 0 0 0 0 0 0 0 0 0 0
##$PAPS= 2
##$PARMODE= 1
##$PCPD= (0..9)
100 100 100 100 100 100 100 100 100 100
##$PEXSEL= (0..9)
1 1 1 1 1 1 1 1 1 1
##$PHCOR= (0..31)
0 0 0 0 0 0 0 0 0 0 0 0 0 0 0 0 0 0 0 0 0 0 0 0 0 0 0 0 0 0 0 0
##$PHLIST= <>
##$PHP= 1
##$PH_ref= 0
##$PL= (0..63)
120 0 120 120 120 120 120 120 120 120 120 120 120 120 120 120 120 120 120
120 120 120 120 120 120 120 120 120 120 120 120 120 120 120 120 120 120
120 120 120 120 120 120 120 120 120 120 120 120 120 120 120 120 120 120
120 120 120 120 120 120 120 120 120
##$PLSTEP= 0.1
##$PLSTRT= -6
##$PLW= (0..63)
-1 -1 -1 -1 -1 -1 -1 -1 -1 -1 -1 -1 -1 -1 -1 -1 -1 -1 -1 -1 -1 -1 -1 -1
-1 -1 -1 -1 -1 -1 -1 -1 -1 -1 -1 -1 -1 -1 -1 -1 -1 -1 -1 -1 -1 -1 -1 -1
-1 -1 -1 -1 -1 -1 -1 -1 -1 -1 -1 -1 -1 -1 -1 -1
##$PLWMAX= (0..7)
0 0 0 0 0 0 0 0
##$PQPHASE= 0
##$PQSCALE= 0
##$PR= 1
##$PRECHAN= (0..15)
-1 1 0 2 -1 -1 -1 -1 -1 3 -1 -1 -1 -1 -1 -1
##$PRGAIN= 0
##$PROBHD= <5 mm BBO BB-1H/D Z-GRD Z8478/0071
>
##$PROBINPUTS= (0..15)
<> <> <> <> <> <> <> <> <> <> <> <> <> <> <> <>
##$PULPROG= <cosygpqf>
##$PW= 0
##$PYNM= <acqu.py>
##$ProjAngle= 0
##$QNP= 1
##$RD= 0
##$RECCHAN= (0..15)
0 2 0 0 0 0 0 0 0 0 0 0 0 0 0 0
##$RECPH= 0
##$RECPRE= (0..15)
-1 0 -1 -1 -1 -1 -1 -1 -1 -1 -1 -1 -1 -1 -1 -1
##$RECPRFX= (0..15)
-1 0 0 0 0 0 0 0 0 0 0 0 0 0 0 0
##$RECSEL= (0..15)
0 0 1 0 0 0 0 0 0 0 0 0 0 0 0 0
##$RG= 101
##$RO= 0
##$RSEL= (0..15)
0 0 2 0 0 0 0 0 0 0 0 0 0 0 0 0
##$S= (0..7)
83 83 83 83 83 83 83 83
##$SELREC= (0..9)
0 0 0 0 0 0 0 0 0 0
##$SFO1= 600.20138046
##$SFO2= 600.20360876
##$SFO3= 600.20360876
##$SFO4= 600.243608758056
##$SFO5= 500.13
##$SFO6= 500.13
##$SFO7= 500.13
##$SFO8= 500.13
##$SOLVENT= <DMSO>
##$SOLVOLD= <off>
##$SP= (0..63)
1 0 0 0 0 0 0 0 0 0 0 0 0 0 0 0 150 150 150 150 150 150 150 150 150 150
150 150 150 150 150 150 120 120 120 120 120 120 120 120 120 120 120 120
120 120 120 120 120 120 120 120 120 120 120 120 120 120 120 120 120 120
120 120
##$SPECTR= 0
##$SPINCNT= 0
##$SPNAM= (0..63)
<gauss> <gauss> <gauss> <gauss> <gauss> <gauss> <gauss> <gauss> <gauss>
<gauss> <gauss> <gauss> <gauss> <gauss> <gauss> <gauss> <gauss> <gauss>
<gauss> <gauss> <gauss> <gauss> <gauss> <gauss> <gauss> <gauss> <gauss>
<gauss> <gauss> <gauss> <gauss> <gauss> <> <> <> <> <> <> <> <> <> <> <>
<> <> <> <> <> <> <> <> <> <> <> <> <> <> <> <> <> <> <> <> <>
##$SPOAL= (0..63)
0.5 0.5 0.5 0.5 0.5 0.5 0.5 0.5 0.5 0.5 0.5 0.5 0.5 0.5 0.5 0.5 0.5 0.5
0.5 0.5 0.5 0.5 0.5 0.5 0.5 0.5 0.5 0.5 0.5 0.5 0.5 0.5 0.5 0.5 0.5 0.5
0.5 0.5 0.5 0.5 0.5 0.5 0.5 0.5 0.5 0.5 0.5 0.5 0.5 0.5 0.5 0.5 0.5 0.5
0.5 0.5 0.5 0.5 0.5 0.5 0.5 0.5 0.5 0.5
##$SPOFFS= (0..63)
0 0 0 0 0 0 0 0 0 0 0 0 0 0 0 0 0 0 0 0 0 0 0 0 0 0 0 0 0 0 0 0 0 0 0 0
0 0 0 0 0 0 0 0 0 0 0 0 0 0 0 0 0 0 0 0 0 0 0 0 0 0 0 0
##$SPPEX= (0..63)
0 0 0 0 0 0 0 0 0 0 0 0 0 0 0 0 0 0 0 0 0 0 0 0 0 0 0 0 0 0 0 0 0 0 0 0
0 0 0 0 0 0 0 0 0 0 0 0 0 0 0 0 0 0 0 0 0 0 0 0 0 0 0 0
##$SPW= (0..63)
0 0 0 0 0 0 0 0 0 0 0 0 0 0 0 0 0 0 0 0 0 0 0 0 0 0 0 0 0 0 0 0 0 0 0 0
0 0 0 0 0 0 0 0 0 0 0 0 0 0 0 0 0 0 0 0 0 0 0 0 0 0 0 0
##$SUBNAM= (0..9)
<""> <""> <""> <""> <""> <""> <""> <""> <""> <"">
##$SW= 5.70064141487484
##$SWIBOX= (0..19)
0 0 2 0 0 0 0 0 0 0 0 0 0 0 0 0 0 0 0 0
##$SW_h= 3421.53284671533
##$SWfinal= 0
##$SigLockShift= 0
##$TD= 2048
##$TD0= 1
##$TD_INDIRECT= (0..7)
0 0 0 0 0 0 0 0
##$TDav= 0
##$TE= 298
##$TE1= 300
##$TE2= 300
##$TE3= 300
##$TE4= 300
##$TEG= 300
##$TE_MAGNET= 300
##$TE_PIDX= 0
##$TE_STAB= (0..9)
0 0 0 0 0 0 0 0 0 0
##$TL= (0..7)
120 120 120 120 120 120 120 120
##$TOTROT= (0..63)
0 0 0 0 0 0 0 0 0 0 0 0 0 0 0 0 0 0 0 0 0 0 0 0 0 0 0 0 0 0 0 0 0 0 0 0
0 0 0 0 0 0 0 0 0 0 0 0 0 0 0 0 0 0 0 0 0 0 0 0 0 0 0 0
##$TUBE_TYPE= <>
##$USERA1= <user>
##$USERA2= <user>
##$USERA3= <user>
##$USERA4= <user>
##$USERA5= <user>
##$V9= 5
##$VALIDCODE= 0
##$VALIST= <valist>
##$VCLIST= <CCCCCCCCCCCCCCC>
##$VDLIST= <DDDDDDDDDDDDDDD>
##$VPLIST= <PPPPPPPPPPPPPPP>
##$VTLIST= <TTTTTTTTTTTTTTT>
##$WBST= 1024
##$WBSW= 4
##$XGAIN= (0..3)
0 0 0 0
##$XL= 0
##$YL= 0
##$YMAX_a= 1199213
##$YMIN_a= -1525685
##$ZGOPTNS= <>
##$ZL1= 120
##$ZL2= 120
##$ZL3= 120
##$ZL4= 120
##$scaledByNS= no
##$scaledByRG= no
##$ABSF1= 0
##$ABSF2= 0
##$ABSG= 0
##$ABSL= 0
##$ALPHA= 0
##$AQORDER= 0
##$ASSFAC= 0
##$ASSFACI= 0
##$ASSFACX= 0
##$ASSWID= 0
##$AUNMP= <proc_no>
##$AXLEFT= 0
##$AXNAME= <F2>
##$AXNUC= <1H>
##$AXRIGHT= 0
##$AXTYPE= 0
##$AXUNIT= <>
##$AZFE= 0.1
##$AZFW= 0.1
##$BCFW= 0
##$BC_mod= 0
##$BYTORDP= 0
##$COROFFS= 0
##$CY= 15
##$DATMOD= 1
##$DC= 0
##$DFILT= <>
##$DTYPP= 0
##$ERETIC= no
##$F1P= 0
##$F2P= 0
##$FCOR= 0.5
##$FTSIZE= 1024
##$FT_mod= 6
##$GAMMA= 0
##$GB= 0
##$INTBC= 1
##$INTSCL= 1
##$ISEN= 128
##$LB= 0
##$LEV0= 0
##$LPBIN= 0
##$MAXI= 10000
##$MC2= 0
##$MEAN= 0
##$ME_mod= 0
##$MI= 0
##$MddCEXP= no
##$MddCT_SP= no
##$MddF180= no
##$MddLAMBDA= 0
##$MddMEMORY= 0
##$MddMERGE= 0
##$MddNCOMP= 0
##$MddNITER= 0
##$MddNOISE= 0
##$MddPHASE= 0
##$MddSEED= 0
##$MddSRSIZE= 0
##$Mdd_CsALG= 0
##$Mdd_CsLAMBDA= 0
##$Mdd_CsNITER= 0
##$Mdd_CsNORM= 0
##$Mdd_CsVE= yes
##$Mdd_CsZF= 0
##$Mdd_LrLAMBDA= 0
##$Mdd_LrNITER= 0
##$Mdd_LrRANK= 0
##$Mdd_LrZF= 0
##$Mdd_mod= 0
##$NCOEF= 0
##$NC_proc= -2
##$NLEV= 6
##$NOISF1= 0
##$NOISF2= 0
##$NSP= 0
##$NTH_PI= 0
##$NZP= 0
##$OFFSET= 5.150327
##$PC= 1
##$PHC0= 0
##$PHC1= 0
##$PH_mod= 0
##$PKNL= yes
##$PPARMOD= 1
##$PPDIAG= 0
##$PPIPTYP= 0
##$PPMPNUM= 2147483647
##$PPRESOL= 1
##$PSCAL= 4
##$PSIGN= 0
##$PYNMP= <proc.py>
##$RDF1= 0
##$RDF2= 0
##$RDFWHM= 0
##$RDINT= 0
##$RDPOS= 0
##$REVERSE= no
##$SF= 600.2
##$SI= 1024
##$SIGF1= 0
##$SIGF2= 0
##$SINO= 0
##$SIOLD= 65536
##$SPECTYP= <COSY>
##$SREF_mod= 1
##$SREGLST= <1H.CDCl3>
##$SSB= 0
##$STSI= 1024
##$STSR= 0
##$SW_p= 3421.53284671533
##$SYMM= 0
##$S_DEV= 1438
##$TDeff= 2048
##$TDoff= 0
##$TI= <>
##$TILT= no
##$TM1= 0
##$TM2= 0
##$TOPLEV= 0
##$USERP1= <>
##$USERP2= <>
##$USERP3= <>
##$USERP4= <>
##$USERP5= <>
##$WDW= 3
##$XDIM= 1024
##$YMAX_p= 296405689
##$YMIN_p= 0
##$CURPLOT= <printer>
##$CURPRIN= <$printer>
##$DFORMAT= <normdp>
##$LAYOUT= <+/2D_hom.xwp>
##$LFORMAT= <normlp>
##$PFORMAT= <normpl>
$$ Bruker specific parameters for F1
$$ ---------------------------------
##$ACQT0= 0
##$BF1= 600.2
##$FnMODE= 1
##$NUC1= <1H>
##$NusJSP= 0
##$NusT2= 0
##$NusTD= 0
##$O1= 1380.46
##$ProjAngle= 0
##$SFO1= 600.20138046
##$SW= 5.70064160192714
##$SW_h= 3421.53295898438
##$TD= 128
##$ABSF1= 0
##$ABSF2= 0
##$ABSG= 0
##$ABSL= 0
##$ALPHA= 0
##$AQORDER= 0
##$ASSFAC= 0
##$ASSFACI= 0
##$ASSFACX= 0
##$ASSWID= 0
##$AUNMP= <>
##$AXLEFT= 0
##$AXNAME= <F1>
##$AXNUC= <1H>
##$AXRIGHT= 0
##$AXTYPE= 0
##$AXUNIT= <>
##$AZFE= 0.1
##$AZFW= 0.5
##$BCFW= 0
##$BC_mod= 0
##$BYTORDP= 0
##$COROFFS= 0
##$CY= -3
##$DATMOD= 1
##$DC= 0
##$DFILT= <>
##$DTYPP= 0
##$ERETIC= no
##$F1P= 175.021301269531
##$F2P= -5.02129320170766
##$FCOR= 0.5
##$FTSIZE= 512
##$FT_mod= 6
##$GAMMA= 0
##$GB= 0
##$INTBC= 1
##$INTSCL= 1
##$ISEN= 128
##$LB= 0
##$LEV0= 0
##$LPBIN= 256
##$MAXI= 10000
##$MC2= 0
##$MEAN= 0
##$ME_mod= 2
##$MI= 1
##$MddCEXP= no
##$MddCT_SP= no
##$MddF180= no
##$MddLAMBDA= 0
##$MddMEMORY= 0
##$MddMERGE= 0
##$MddNCOMP= 0
##$MddNITER= 0
##$MddNOISE= 0
##$MddPHASE= 0
##$MddSEED= 0
##$MddSRSIZE= 0
##$Mdd_CsALG= 0
##$Mdd_CsLAMBDA= 0
##$Mdd_CsNITER= 0
##$Mdd_CsNORM= 0
##$Mdd_CsVE= yes
##$Mdd_CsZF= 0
##$Mdd_LrLAMBDA= 0
##$Mdd_LrNITER= 0
##$Mdd_LrRANK= 0
##$Mdd_LrZF= 0
##$Mdd_mod= 0
##$NCOEF= 100
##$NC_proc= -2
##$NLEV= 6
##$NOISF1= 0
##$NOISF2= 0
##$NSP= 0
##$NTH_PI= 0
##$NZP= 0
##$OFFSET= 5.150327
##$PC= 4
##$PHC0= 0
##$PHC1= 0
##$PH_mod= 2
##$PKNL= no
##$PPARMOD= 1
##$PPDIAG= 0
##$PPIPTYP= 0
##$PPMPNUM= 2147483647
##$PPRESOL= 1
##$PSCAL= 1
##$PSIGN= 0
##$PYNMP= <proc.py>
##$RDF1= 0
##$RDF2= 0
##$RDFWHM= 0
##$RDINT= 0
##$RDPOS= 0
##$REVERSE= no
##$SF= 600.2
##$SI= 512
##$SIGF1= 0
##$SIGF2= 0
##$SINO= 16
##$SIOLD= 1024
##$SPECTYP= <>
##$SREF_mod= 1
##$SREGLST= <1H.DMSO>
##$SSB= 0
##$STSI= 512
##$STSR= 0
##$SW_p= 3421.53295898438
##$SYMM= 0
##$S_DEV= 1438
##$TDeff= 256
##$TDoff= 0
##$TI= <>
##$TILT= no
##$TM1= 0
##$TM2= 0
##$TOPLEV= 0
##$USERP1= <user>
##$USERP2= <user>
##$USERP3= <user>
##$USERP4= <user>
##$USERP5= <user>
##$WDW= 3
##$XDIM= 512
##$YMAX_p= 296405689
##$YMIN_p= 0
$$ End of Bruker specific parameters
$$ ---------------------------------
##NTUPLES= nD NMR SPECTRUM
##VAR_NAME=  FREQUENCY1,    FREQUENCY2,      SPECTRUM
##SYMBOL=    F1,            F2,              Y
##.NUCLEUS=  1H,            1H
##VAR_TYPE=  INDEPENDENT,   INDEPENDENT,     DEPENDENT
##VAR_FORM=  AFFN,          AFFN,            ASDF
##VAR_DIM=   512,           1024,            1024
##UNITS=     HZ,            HZ,              ARBITRARY UNITS
##FACTOR=    6.68268156051637, 3.34134067062044, 1
##FIRST=     3091.22638883591, 3418.19150604471, 603
[...]
263E986J398K815R790o413K924E459R877K4386Q4365Q2270J2677j4061J4078F6475
248I211l130N216m442Q539n910q8C225J74N049L371j778K0951A2701K9481D072
232C7423n592J19210P499j3719l2975A2832L5200A2072N768B917N4J737j993M69
218C184j046E98j07K832j29p01J69I92D33p0K888A422k47k16J444B32J31O22L93
199A378k46J238A002P0j45k21J71R6l63K78J275H42M25K399A592E65Q4L29O85
180A663F27L57N54O16C13B9K93M90M43k59J75C17N64l51N50K34J00F92L74j21
160I45j91O81P90B18M92M38j07D21K09B01K043q25B97P63k11J204B20M81B71M59
140G30C43L95K14D62R93J049q74l38A98Q77E37J52J238o30K10o31J063F48K41
121H89L67J30n92K178A412C88K20Q31F7O77j76K06J919j015E93j70A69J17K76
102E62O78F15O129N446E421F95P62J75C7N67L0qC10O21J65K41C58J422o82A44
81A37J134F02B60J5J187o58C40M31P56M18r43J296J99j225l3n12N7r0J15A77L40
60E17J282o83M06M5F60K75N26m58J80l02K73D51K09K55C65J512B81p4mN18B48
38A32O18l60A11P10L76B74L75k42j16N4N58P36l48B54r7M91P07L13k82l35K04
17A255D21Qk0N43B37j5L43O42n70O04B40j7M57F8K45K52O0
0F25
##PAGE= F1=-296.8931623459
##FIRST=     3091.22638883591, 3418.19150604471, 527
##DATA TABLE= (F2++(Y..Y)), PROFILE
1023E27B34L09A60K50Q26C84Q60M2L30n36j52J429J24B54M5R32K454A295n40R7
1003H52m7K447I03l59J848p03H36Q63M99I12n3J487q27J2O43r98m78A97I0L11
983D01M07L76M92n43l6n00J543l07n55k48C52J70M42D30m9p4J64J40j76l7N19
962I17A42K261E96K09M99A01K248n17D79L6k28Q85D34J428H45B67K27A83P74J872
942B829A059l51A76K5M1L08K87A85N60M39N38n66j63J083H03M55j82C24R70J475
922B769n23C89o2A61J112N53C95P69l4N60O06C69P6J185D57A87j4K61N15M71M10
901A830B29K312n96E68L93j29K53R56G37k70O1K33j48O26A45J157F29N1o4L15
881I31j49J848Q41A658o49k07K191J646I40K051j047J733j619Q140K1570P428
865C9196M3161n816B8974B493J901A967L19K59F18m2K16k08K10C96J462D23J23
848E46J009M19o96m46A67N72Q0J80A74N00Q41J167p35K17n47F55J604p00D18K13
828F31R97D55A58R36J376F78J25k34J23B03Q08m66P15q8J558A035l87K01k42B95
807A153J242r12B20J010L37G77A22O38J476q15F54O29D01p4N77B10K18J260F85
787B714m54r56A28J89M26j23mk05L12m8k22L49M7J503B73K04R6J215C62O72B88
765A133NE26K63O24o63L3J094H74M07J395j79I49j55J339K3l09r11Q43C07J378
745A685B34N10A24M42J42k55K654o59k49H30m10M3o2K70M45B64N93O30l33E23
724C52o8l7J211j25K44G48j49A39O53l33M40I2K57K31O11R16A003l29J494j073
704A095M36l57B82K26P36R14k99H09J222r48J213G47C54K68K96l94n6L20P43F81
683C839A193D63k21M20A81J661o12E64k34J35J853K243J688L514D841P713J2930
666B5484p051J3731j5142F832N286B074n46J256C70P35K88C92K99C44j49K608
650B803N63A675p14m28K327B25K286A120m22k95r2N66J85M39k05F17k31O64N2
631A102J805o04F38J02J30C67O01l80L81k79B23L22O68l10m11K13R40K080G27
611E76J92k35O1J169p14m70B67L111K34E79L01O62K08D41P40o3L49K029r30o94
591A872F86l31M03J336l19B16N49j54j4B24Q31A3K86J214D74N10J86B67K90A94
570D11L05j00R09l90M87R44j008q6E15K16O62j34N59B53m4K33M06P27N45q38L91
549A673O02K826J851J57A871l61p23j49k17A96L31K62C17LP07P10l71P92j057
530A101E39P9N48P99kp13j8E54O21N28C09N99k46A47J433B10K42M15G6J021k75
509H22k80J417G14M17m69B92J75D6P26k42A62J512M401P276j161J185m692M527
491A3210D783J895k313K864C523I61J613q68l79n88B71J207P42o78n08k6Q72G19
472A164E81K63O0j08K79m72p9j60J49K35B56K060A006D5Q44l75j51Q09m5B48j23
451A25O78J057j52k79O53k5q79E9L16K71N55J405G97L360B033R25A437l89M5Q07
431A900J020K195M283k195l388A468O52J457A205J989o96E58J512E49N50E06j52
414C54Q64E11j27J81B71K99M27B31J8R55E99j70A57K58M23J269F11J69j78J339
394A941J233A263M3K024r65L32R11R22r20J828O3r61j807m19C98L3P18j81L85
375A353K891j557M665j945J56k83J087j586K378C466L64G86M06J155A151N60K03
358A914o76k76J16l05l33J067p52P08k18E78R81K3j03k5K275A738Q02j092K747
339D195A912L98J706I61M26H1J043O57E62J578H44J073r7A98Q09D79L65J73E06
319B57Q04J135I36B64N48J24K01B92R77J52J172A142l21l3C85O55N77k59J545
300B903H69J322D48M19B60M0L06J26k73Mq1J47A64K43A9P05Q49pn96L139j348
279B761p65D02K913L41L863N918M077l121l299j719k549B996J948M967D151O045
263A0196l38j361J4436p086l194C180O537K5597J9895K13701N0055j6642N878
250C08201A10595H330M972N553C502J6373k173j03n218E504M212K094O009N000
236B2819A0455K0052A0202L8872j8544J89761K9524l540p6819E400M2394B1813
223A8607B955m56K594B182J277p27A102j95K523M79r36j245q07M79l45K480A422
205B65J282R06F56j03n3p4K90J191I04j53j82J68MJ88m3L7J484D64M21K681A453
183D96A88J950L39F47J79P38P38C74q0m8O00L72E50O57n88N57E22L11k05J71M79
162A278l7m51o1O84R5B68J20J281p10j33l11A99J218m76D11Q25l20J185B95Q71
142A166D04M00I3J132l42k9B47J964j026K23m4k37m54M6J408A042j33K090A447
122D76M38J72k09L17K140j507D73j6P89A40Q48l77L47J917j074B48M4j23J84L85
102G38Q02n28M718M073D252E69M92E01P1L54L3D55o9L06M24L35F85J695G32A30
81A46Q20k49B12K11O41m87k08K13M14Q52n39M21J59q82L51n3l74j92K02D35j54
60B81J096j85J330l96r70N45l70D18J152o69R95j11o31M88E53J742C22A47K07
41C54K67j62K76M72D85A15O16R0B89K09j81A38Q0P69N56j08o98E7L56R66j53P74
19B000I63o8B83J43J46N6k77j61Q02J031k40n78D38J5N98C83K16p3J45
0F71
##PAGE= F1=-303.5758439064
##FIRST=     3091.22638883591, 3418.19150604471, 624
##DATA TABLE= (F2++(Y..Y)), PROFILE
1023F24I6N53k53G9R13D19P99p7j47P0M26J960j410A22J37J582J154G68J46k84
1003F30R61J146I56l90J807j016o67O22J530A158l60K021A160m22J299o09l73
986A055A24J55K85N2O88J063A168K47E95J382k67l52l53A58o0O64l44K55C32M65
966G97K66D23j81P27C33K317G57J75M16B21J213m89C45j51J038J84C12K034H58
946A53Mj5O55J858F40L4k38A25A3J311LA61J061J455j165n15k67R96m90n57K8
925G07C53Q77P18j43D50L13C09Q75P30D84J606I04K27J294D22J5J729C33A66o3
905A03L40J17Q07k24A47K719n19G76N20n32j62K121A191n3A75N7P03M70I5J496
885A591m44C23K79J79J5J952J281A794p13m59J840J731A073J789j098J82K698
868D644R767J7369J2162L4169J477B7977C819J394A578O48K23j013D91l2J25K67
852H51l16K731G03j99O64L20m59m60B27K47J22L28C20K39P18J942A488N37q98
833A127j4j74N5l11N05P19D86A44J224K275F80N11E83r4j87L55j93O40L72J119
813B595F40j49J41j52K9J173M5o96B67J407L77I79I0N82J980A281m58O2B05K79
793D84K18B42M10J277F81K591k24A071E5J78j09M68k85O7M99k33A09R61j60K113
773C023F01C00Q6P5K73o8B03P49M06n80R8J96R9J94N61H44r2P72J411j120n94
752A221R56O36j071p26J437C23J39A15N43A16K79M39j52J453n87k1G55k34P5q
732E88Q10k07B68M80J626j01F10l5k31o5R57N04l51m7j92A75N83l72O94l83J5
711G12C13J93K005A202l94R46n51j55J21B46O23R47L72j037B31J679H78K670D01
691C69K59J76m7l35K1J021G19J827I58l22j31Q8A67J408C73r8L21j92J154L290
671D848L19N393m316O286J0828J476Q497j0396p871p31E602k607F5O76j38L81
655I84m65j78l9J16J494J24I13M97D74J889B81K408A111O7D86J8P92K27j66L20
635A677q33C42J177F62J567Q8C19P6M63l83O34j48j94Q2C71j26R67l26m19q2K473
614B858OD43J37O17D43j27R97m73l84L0J501k13B41K52O71R5C84Q86O70M18J016
593C374A622o7F89j92K29J150n09I6M55k09j52K82R44H4K42J005E51Q26q3B81
572F2N4J70J21R45J045q62J043P78j507l96C43L27L61M05L63A39N6J35Q16M22
552A568K74G55j74K45K053J274J460A981O89j194D87m2A31K52L63j05j5J16N47
533A289F24J321k68D43N13K98P50K93j130r2D31J48J376C76J288n82D32R42B33
513E25J89A32N02J30B91J177o19L08E14L58j6F5P35C90j73P87M665K139l33M683
493A2158j938l046B436L238j130J032B355A135J633J40A201j16D17J239K21L78
477B255H38F8L010j461F89K19l5j60J50P77G19N4p1p9L18B05K716A016A52O90
457H42k78O2M66L96B17k2P04O75n64P7J177N8p99B36L22K85N85J067F61K754j055
436B360J27q71Q71G68J403n82J685M466C817j383A183J600J84p19J122j214F49
418A917G91Q67A12M20P89C14L6K55A83L50K04I7O39N57B16J47A70L28O28M11o22
397I15Qj44Q55N59p50k43L47j58P21J18J968l39J442J78q55j951l92j060B29J160
377A389o91N32L830J14P204m518N783m467j613j066K090C851J03G92J08Q14m43
360A271K19N13n03p16M09B43J21Q63m43J902A000l53J110Kl27m50K787j813J84
341B140G04L959j834j266J453r37m29A20J109J052G54J220I31Q04L75C43N01l86
323D58M95K00m60k83N33J236o48C26O47j46J27D12J707P85P71A118m12O9C62N83
303I45N05L63Q61G18J486D13N61C81C6N37O1J36k79M9QB64A08k2O55L35K77E04
280A509Q01n22D70L171L170J651N42M121l280k622j595N83k539P56R779C419J4100
263A7519k753k560R344m140l559m53j855L0919j5348L07686R3154k716j191A51197
248A6852N935P86F055J8256j268K577J927A1726L531l284J0932k725F841Q774
234A5615K314M1972k5759K40918N5998M5899j12561B2168K3669j8463j2842F764
221B843K470A883J539j51j477l48J887J389j303H33J214Q68o11Q15A346o51J835
204B530k4H49Q25H09j21A34O90D02L90B15L65Q8K22L80m71J234B09L52K138A152
183C98J75J822L6E97K8O81N25E96j36A38O77K79n15M90l11L72n37Q2C14K77J084
162A675l65o43n1P21k39D61j80J492F96J23l44A75N84l02J80P48k66P37C74J668
142B042E36M80C77J177F98L06J49J30k91L66K022A225m74L7J092G98P0L877H79
122C86M43J1J35Q36J482j341F51l23P07j97O53F26M46R19l99A68j0O3O2O16J600
101B499p23L036M512D083D36M28A57N12L78J19C81K97p4M91N97j73J834E96A83
81B79L52K49D37P9P4j86j48O7K69J001J12H13p8j36M24P48p54k39L41l80l38L58
59G59N18K103m35j053N41I87A64J386p38J336O90j004P38F72J399G91C8M63K56
40G57l8L24M82p30B13M06B00K15l4A47J4J50O10J55K94j78B4N87J471C78J735
19B113G93l45A71L44J43C27K48A68J593J283k14I44l30N4N91l53k47L14j08
0H65
##PAGE= F1=-310.2585254669
##FIRST=     3091.22638883591, 3418.19150604471, 725
##DATA TABLE= (F2++(Y..Y)), PROFILE
1023G25B41N61C94A59O99l76M54j18j11M20J421R25A127A31R7K012k62D87N97
1004A084C99K010o67q60k71J394q76m71L22K212A403n46J324F77k61J757m36k60
986A477B29J190n55l84Q26J468j209J98F18R78k65O9l93A48L69Q9K9J002C69N62
966I31P50D22B06P53m08J823j161m33N6B90N79m03A95J432J071j133A69K112H71
946F0N30j38J67J135B49L00P3A99L27K617r74B47J438J712A242l51B63O35N72
927A470E67j18j19Q51j26l0n12N76n22L50N26F43K137H16N7J189C09R5J536A92
906E61F8M22l5O41m40B9K178j06r14O41G24j50K033j048K58B96E7J376j10A44
885A591k39K80D78Q9J70J284P69r92n15B43J451R18A214J276j084j24M328Q283
867A3893K3936K9752K3191P109C1436E640M75A515O89M9J61C52l2M02L03l94L275
850C906A123n59Q3K37J02m32q0K96j08L72E01j6O17K085j577J64C99J373B62O13
830H75J49L84P37F52B78J215J940F53O00E83j96l2j0L2L42J100L87C77Q2P5j21
809D13L43J223I57l52k30J905K18A120A35M15K308A143k1E05A46M95l02K33R4
790F66J030E33K407J07G13j02B01J94J78J45M4M90n64j73Q62m73J958H85H2K84
770C66P4P17B53j01O19P51m05j69o7Q61P08o02G87m1k97K383k04j191P40O14j168
749A623p26J481B51J10H8K52q7K44M77j45N27l85j21l80M58l11J78J335p32A95
728D32K338L28F33N33E56k30P77R44j005J114j50A69L81k53Q73K63j63C51D8K195
708B243r84k20m4J52k90Q17B57J133J004n81G00B77J280K010M792B674D25L37
690G62j74K48l74j58J062o40M73k95j29Ol59R28J4E24r7L60l86J132K295k70N679
669I237l304O503N917L389L596n825n778k161E703k423A607n51B25J097m22B69
652D37J69M24K52E26J234C77P51C54K115A138M45F51J0J345k50p91J103q94C83
632A766B10J236K26o4C53M64j72N68J98E54L43l70F8Q25r3K02N3K673A789A98
611E09R81B97K1L78j90K15j25N49l55k91j62M26k3C48P60J115N37j70I44M30o27
590G47j70N4P40l55H9L44m9j20N39P10A45K54O58E15Q72rD90j20K8R2j28J670
568B032P45r26J406J45j570m58B25M67L11Q51l85A98n3J11J014O3o18l48J60K19
548G46P9K21J975j154J489j154p28D02A81R1N08oM83D41L40B97J286N14D83O60
528A143k33P77O71j054m54B21K08J742D21K032m18G18P82B81K73O3B10J94J65
509E69k5L80Q9K66D23R91n84A61O44A94M44k66K963l80j58L623J350C472j280
490B192J469O35p27A229Q33P75L03A078K48n62Q93l26J587G69A45L772j860B95
471A612n44l04j89J344G67N93m05j99M36C78K811A091B36M54j74P55j20M75A64
451D87N87K44E91M7J115o3m91n35Q2J29P48O25F54J847k95n92K82R61B61K344
431B605I04K906J919k547A199J624j330l41R06J30n33G13P80m80J167I20k89M81
413A112D15l5M24l62N3N55m95N90L78B8L13A64O13N79D73Q92l51p5J60J11N08
392A718l78m04K03P32J56J939k42K199L29o39k639o53m45A29J264D71R44L867
374E282K162R955H289J1610q809k816O08O43D577n17H68j68K09P70n48J112m35
357A808F46M39m8A50P65k83K338F23m9J166j75n16k11K178j068q4B24L584JA544
336B074P91p34D55J892L50H19P65o75L88J061D27K08j54M83L6k85j00J52J472
317B239K18C09O13k92L09D48K427J375r38A023m07Q8l37M75N39Q84l84E50Q73
298A423D38O56m50k69J02K1J004G38R8r7N9A30O3L02J86O74F48A89K251G57P21
277A478K697P244k597j748K821l214j677N14R95J211l726J4761C428K2297j1092
262A4633M749k494K056L478J440j399N1947A7244L45605J01752L2577k2580A74973
248B0185L577J904I913J5648k098R065J913A5244J019m717R145J8754A3847n491
234H356J9070K7081k1113J82023Q2629Q3667j04500C1942R881j4491I737j577
222H160C763J181B039J107J57q38p38J212K007j475B87K412O52J34j278j028J07
205A286J804q69H52J803A251j42m34k47J8Q71A62J28L70J92P90E36O57H3L32J180
185A595p77C33N37J143j89D86Q1N54j12k77k38A9P17K37j30q6KJ32r5q5j20N3
163F44Q99l53E17J75O79l58m17k64J076E17K77k35A16J78K26P23L57J52k47l47
143A158J424F13O43F14Q10D46N54Q36F33L70J35L755A437E72Q90j88E42J007L258
124D807D99p8K65r1R05O77O77j079G73B33Q63P00j54F03M36n9J95C80G0K74J21
103D65O03K700j141K397L929C769C67M13B59L47K86K23k99J37k37L89Q60O23J484
84D072F06B47J36O7P00p9n14k48J21A12j7L79R16O92D89B39j6K74J289p76j03
63I07M76k92n02A87J163K095J47j052M9E56B09Q97m81J141J011m10Q98F96P77
44A473J43B13M37J012l36l51O10o78C54J15M22r8l18E1J39K15L16k16O82P5I8
22A001K234C19J165E19E4J13M02J20k81M59A46K204J273n03F63J12N3M05M81C98
1A233j40
0A093
##PAGE= F1=-316.9412070274
##FIRST=     3091.22638883591, 3418.19150604471, 752
##DATA TABLE= (F2++(Y..Y)), PROFILE
1023G52C05O75B57A02P51l32pj12J28P08K094q22D95B04R7J703p59C98Q23D28
1002B866A158m47JQ14n84l13J19K116j278n63l8k29o8J694n26M9D00K747A144
982E73O27J400m36k04F81N95l65M69l03E07L46l63O08J875C45N14J360F40J95
963H35O6r9J055j46B23j1O11n9l53A29L041N89A557D5J667p79B4J229m72l46M07
942H42B57J54M65C82J006L253j924D89J540P52j266o65A84J73R79m71D32J22P60
923A314F15k81K09O75k88k84J71K3J789H94r6P75B17K24P32C20O68A96M13n6J99
902G52k85A14J210J78m2Q88F31J45Q40K46L62E83F7J450m10B47J114j26J245C18
881C41K40N82l02R27k93D57P59J76O25J07p12K13M110J095K9366L7070K6189N470
863A04925C5076G060Q35A719M64n7M78C39j16P64L29E19K845A523p22M4j64L58
845A039E16P2O27m11N28F02k51P37J819l50j030C07J842D00J380m59J03R66A089
825E50P95Q27F07M93D75n9l9H9K54N1J590l10A69L71K81o6K48Q82G45l40l7K232
803B600n7A101B42J20K379A220K32I5K47L79A66P94C83Q98E07J415N43j103M08
784A770A93L36J4O63j41P45r03K83K17n59J072q49F8M13L08K06B72j22M42R21
764A513j75k79k95J320J457A647G41NB71K195L20A255Q54J8n54F71R38A15O44
745G59C18p8J13O3P35l16P1l49k08J90N00E11N00J361q17C43A43K112O95E65J118
724A683p09C32J039O81G80J666J94A49J46m8R86P85k66F73A74J491m80j14n12
705E59M12j46J317B88J590Q83A312E72P4P28N277J0223G331F11N34C66L91l03
687D54j58J016n86k43L39%K33B36L854A496F81O1Q7C70J415N43o6N556k434O126
667A1510L522r06J537n024l373C551J08j210m77p38B92J235o05C60L21J27j15
650F93O13D41J286q47B74K71J524q96M63G65l6K023r70D24J483n46E66P89B13
630H56J16J964H40m0Q1M47N94D05L14K4C11J92J76P11L17J975A020I8L59J189
610A646A57O63B75P9J119F33O26m85J85A23P86J02m80K92R76N32o55D81P01l10
590H72k42p2L73k05k85J59P14E05M45L61B00K14L75l88O35K76F40r0J28O6l34
569D10J776N74q79J274n40j013m22B74M90K63J450A089B92J37A72R20j77m1C41
549E56J428j35p35j81P94J349o39n48E38k68m3O84j18P59A52M46A75R46R90G70
528I94m32O34R98l94F03B02M09J668D48K263N33H78J055C70K19RB67L64k31L86
508G86rM33K78C09K175F58B95N04A66O55M88L36J504L57o60j151L214k042F18
488C229l21o24J321o54o94j048K06l42K62m59K242F92E2L841A679F72J700q89
470A483m38D83J236G37J352q07r2J63E86K334A326B54K00n2J536m06k94A98O88
451H86N72l53C98j62P06j03l35N75k73j7R17J39G00J232j98o16J260l79F37K055
431B692H42L361m92k20A319L070A548B98K533j006p10l75L66R8J082p91F33K17
413H50m13J9N49j38m33P66K37j26L97A65K48k01J057J85E13J201o54N6m89J68
393G95J015o02l65O78l0P09J740k39J777J74J92B464m19j67B80Q36D02J089K972
374D463L454R774H608J2757A0080L99n8K875E605j767H03j03l28J884H81J153
358B034j30E15K73Q16C14L48j39J989C79J21J118l85n70J20J241o0L79r84J779
339C138J334B162j30J190q94H26K574o77G97N26n81J71J446j101o26p7L75j36
321G94o5M5k10J778P86A15O26k23N79m42K424J438A856G64k16M8j53L13Q22Q47
301B425j111n67B21L73O38p3k17C01K12J734j057k84j57O79A77J41k9J22Q61l94
281H78l34K679J65J410N23R406o579k337K202k061j355M06R72L701C939J4688
265A8627E082K2395A0343J0499q617N590J1166n50O326R1037C311L38747J14924
252D56982M6100j4810A88447A1392N412Q041j1036J0408l493J2545m482A3433
239A3385j516J035L2625j8077A0189J9105O025n497L6759N9655O0271n1878C3990
225C6171j1427I102k277k028q03j724M62j44K99r70J29J619p15D68K016j99J462
208C747A349n76O67J297j051G01K124j396j62k6n83K44R59F22j26J91J61J014
190A862A48J57H0L49L90k95j85P18M80m83C05M24N24E98J36k53A27N28J60K95
170A110C60L34m9M87l35J36q5R4%C41J002K77m97l69C30L75k41K76R0A07J02R14
148A123J126q3N64A327O25M27F33P88o27J77A98P32R33E74N07k48L774A727E54
128B573G06l15K271P16B53K52j3m4J448J59J79p82o31B46R33J131j026E62K99
109H61k75J44j38A38L73mP30L117o32J238M208D469E12K76l51R3j1M88L17k25
89A099j57J91R05J188O59F63C20J48rJ084P3D88k42L43j79K0KJ165O59F47N4H8
66A39J186n76M22N76j90p68l76J019J186R90n56r86A75J05K82J59K69P88P38Q18
46C334E77L68J308H04j5J712n72G27O72o00l13k18J473L23E30k63P8J28L78B65
25A075l7A92J265K334E65K91A96L84k27K90NM4L85A58K115J089p12D53M69p6K10
4A056J372C84P28Q8
0A200
##PAGE= F1=-323.623888588
##FIRST=     3091.22638883591, 3418.19150604471, 695
##DATA TABLE= (F2++(Y..Y)), PROFILE
1023F95B97P61B34n5Q87n27H4J83K31O83K107A476D09A72M23O29m21l45Q75l80
1003I53J912I14m09N63J32m21k00K7J458m79l08n93O55m83J213l60M81E76L630
984D206A167k81R2J011O61q44G09M96n01N22j3l28N3C98J047K371D24J51J632
965B207m22K80G67L64L51M19E52L50Q06G46k55j12L190N4A393A18Q89K4A07J384
945A491n13C07J36q5A39O18l29J637K383k083H02J287o55Q20I97D17L6N19J33
926A105n24P33L89F13A87L26O61R2E16J40M56P30q15k97N35m66j53k9J0N42D02
904H28j70j96l9j73O15J29K79J203E65M54C92J689J02G54D6R98j80C66O66p1J452
883B413I68I1L89K40l08J481n13n56L78K4K511A790m20J122J629j36L3938N7733
865I5656K5656L483D0051H127J351A611O10j66l64D11A83J009M76A94J960l28
849A826p13M18G65L09E19L6R81p37P42F13A85J067J322P37A229C95J558E59J841
830B400r30l1J224q44H94J61Nm53L52B40K04r4A66J92J21J285o21E8N71N67m3
809A153N9K96n02l68N39J136k52I07C65j34K142j041K91A43M21J05rP87B85R29
789A214ml21Q84L57O20A82M07l3R15l35J300A173L35n63k04J34J91B47L74M71
769A092l47j41B59L04P47Q1l0F73J328J856A374o38p8k74J753K08G85J068m86
750A367J58D66L70C34O60m29O38E84M44L69o79R8k67k59N60q5C19Q70Q85m63G82
728I02L10P83E96J089l30C31J384J31F06J257N43A55p7J48J081Q33k80q47C34
708A205k9k49D12L54M0J329C41J697O71A013D64M32J066O353J5022A1409A012
690A678C36J48j71o0J060n82l08K87j61L77B96O065B269G84J03j54C61J232Q33
671B426o34N444k053N677M663n535L562n499B158J1000B948A144P23o26E61Q92
655A453n98D13P51l7l33K82D30Q40J32n90J50O32m10J33n50l0K322j336A78J140
635A318j19m89k59N8o1J64K587j531G34L84L67P52C43K43N70D48j90L20Q48N74
615B000O90G25A07L93J140A19R89A78O25J388E82Q67F98O93C8J823m1p93D37O70
595A107L17k97B12P80L0l33nQ9j87M30k21J130F04L00P8B65J50J28k67L55N51
574A182m75j03L12P0D61J307R05j051O83o85l11m25m09N09L0J958A486C80O54
555A034A21N58n2R23F39J189K575J73j375D80J195L80q8m13F12k55j45Q18k44
536G86O87C01K60B38M05J088o05m65B89N09J156M85E67J40R6J481D72J759J611
517C842H92J355E27J65k7B92N37m00M92n1N83J77A80L694E02k4O9k46N75J363
497B239j0J282R53M153C095L239k169M17B018L721j477K78j275I60M23o7K9o70
479F75JJ948E03B23K830I75kJ683o51k29G97M80o33J634k57%o56o34J450q47A76
457B08J04J869P5E48l6P76P59I65B98I8K29K54B4J099m15N6Q57k06p06J037n49
436A197j20J776I31L57J082A106L938r58K12k012L046A068N9K308H49j66J89P
418H79L76O11l83E68Oj24N8N43K29D17Q01Q82q93L85C12K04j69J445l88m09O81
397A676n80L04D48M55P04l25l3J511j117M78K341j297J390k10Q62A920k57l25
379A338D27L37C30J009J901M597O712o448R732F882L310j241L502E188B514G81
362I02C01K221I57K33M58C71J01J184G17k17RJ319B44J84J194n52C57L53M58R87
342B155M82m26M22J741j663r02J003j089k46K005j233E20P84D96K87J280R81A276
323G56J23k24J43K27m57J910N71D16M63r1O08j45J505R82E96k08Q7K1J16Q2J193
302A887J88q65mk92p1N65Q62QA56N98J994j175o60l30J211A62K83m5L2O53K49
281A334l86K501K022K541j610P916o724j560J379j527k136P3J313L178l636J0039
265A4717n785J3340E220J0923o746O015J2526r74J6111J16815H433K75977J25370
252D09780M4702K9167A88065G471N108R635n894P167m085P194r498G939J326K040
238A1305n285K9222p69A3510N275K7457j8257J25501k6223l8848K952C4735n534
225B9201q411I710D663O53B578k16k71l84J204q81r08R74J08H18R26q03J913A178
206C18R67M92o01E60J681r28l6J79o80J64R47K42H58j07R4J040C77J31A43K86
186D29K4j65J22P70j88m58k30O65N84p67j58k04j29K89J21O46B73L17j32J000
166A458o16M95p3B73L85A59K344o22o40l13B63j6K19L51M60B06M34K018K11J89
146C058L42A282Q69l54F73P38n25l07I9P15P13D44O65n28K134p84p26J656F04
126E09L272A738A81L69k62P7J779m71O6j11q02C21P95Q66H01l33J30k32l4L01
106F33B06M45r5O81K559O47L424O814F663F20K75j50k70j76N42O79m90J28m3O79
86A794J265r0G00l16J49%J427k73C39j07M71P38m10D25J475K23G23J67C37F4Q76
65I40m49R08P31k3A029k03P29j54J580N01A244C16k4K6P31B43M99J570N54D68
44F78J538n49p60J693o78D35O48n14RA37J903J329I76D49L8J45R08E44M96l77
24F63B98J529J486E30L77l50N80m85K47l21L45J59B55J340R56n69C82O69l12J23
4H62J664G29M0L95
0A164
##END NTUPLES=nD NMR SPECTRUM
##END=
