##TITLE=13C zgdc30 BBO
##JCAMPDX= 6.0         $$ Bruker NMR JCAMP-DX V2.0
##DATA TYPE= NMR SPECTRUM
##DATA CLASS= NTUPLES
##ORIGIN= Bruker BioSpin GmbH
##OWNER= NMR_mess
##LONG DATE= 2016/12/02 13:29:25+0000
$$ 1.90.2.4 TopSpin 3.6.0
$$ 2020-10-15 14:42:45.270 +0200  nes@nmr-nesnote2
$$ Compression mode = diff/dup
##.OBSERVE FREQUENCY= 150.93474743895
##.OBSERVE NUCLEUS= ^13C
##.ACQUISITION MODE= SIMULTANEOUS (DQD)
##.ACQUISITION SCHEME= undefined
##.AVERAGES= 28
##.DIGITISER RES= 21
##SPECTROMETER/DATA SYSTEM= spect
##.PULSE SEQUENCE= zgdc30
##.SOLVENT NAME= DMSO
##.SHIFT REFERENCE= INTERNAL, DMSO, 1, 193.6013
##AUDIT TRAIL= $$ (NUMBER, WHEN, WHO, WHERE, PROCESS, VERSION, WHAT)
$$ ##TITLE= Audit trail, TopSpin 3.6.0
$$ ##JCAMPDX= 5.01
$$ ##ORIGIN= Bruker BioSpin GmbH
$$ ##OWNER= nes
$$ $$ C:\Bruker\TopSpin3.6.0\data\luc\nmr/Displayer_2216-51-5_light/2/pdata/1/auditp.txt
$$ ##AUDIT TRAIL=  $$ (NUMBER, WHEN, WHO, WHERE, PROCESS, VERSION, WHAT)
(   1,<2016-12-02 14:32:25.500 +0100>,<NMR_mess>,<av600.nmr.uni-koeln.de>,<go>,<TOPSPIN 2.1>,
      <created by zg
	started at 2016-12-02 14:28:15.092 +0100,
	POWCHK disabled, PULCHK disabled,
       terminated by command 'halt'
       configuration hash MD5:
       B8 5B 0F 6D 72 6E CD E8 2C BF 54 C4 C6 7B 61 10
       data hash MD5: 256K
       1C 03 F9 2D 60 B9 E7 C9 EB 09 3E 93 31 BA ED 8A>)
(   2,<2020-10-15 14:37:28.764 +0200>,<nes>,<nmr-nesnote2>,<proc1d>,<TopSpin 3.6.0>,
      <Start of raw data processing
       efp LB = 2 FT_mod = 6 PKNL = 1 PHC0 = 23.37931 PHC1 = -91.20612 SI = 128K 
       data hash MD5: 128K
       AE C5 74 C6 43 BE 9C 05 9F 30 73 BE E8 7F 85 A6>)
(   3,<2020-10-15 14:37:33.114 +0200>,<nes>,<nmr-nesnote2>,<proc1d>,<TopSpin 3.6.0>,
      <apk 
       data hash MD5: 128K
       4C 11 3F 14 DF 38 4A 71 19 A8 9F 85 37 21 FC 6B>)
(   4,<2020-10-15 14:37:38.174 +0200>,<nes>,<nmr-nesnote2>,<proc1d>,<TopSpin 3.6.0>,
      <abs n ABSG = 5 
       data hash MD5: 128K
       94 AB BF AC 0A 4B 27 DB 12 BC ED 8A A5 8B 4C AF>)
$$ ##END=
$$ 
$$ $$ hash MD5
$$ $$ E7 F9 ED EF 17 44 10 8F 05 CD CB B1 86 C6 0B 86
##$RELAX= 
##$BRUKER FILE EXP=cpdprg2
$$ ;$OWNER=Bruker
$$ 1 pcpd*3:180
$$   pcpd*4:0
$$   pcpd*2:180
$$   pcpd*3:0
$$   pcpd  :180
$$   pcpd*2:0
$$   pcpd*4:180
$$   pcpd*2:0
$$   pcpd*3:180
$$ 2 pcpd*3:0
$$   pcpd*4:180
$$   pcpd*2:0
$$   pcpd*3:180
$$   pcpd  :0
$$   pcpd*2:180
$$   pcpd*4:0
$$   pcpd*2:180
$$   pcpd*3:0
$$   lo to 2 times 2
$$ 3 pcpd*3:180
$$   pcpd*4:0
$$   pcpd*2:180
$$   pcpd*3:0
$$   pcpd  :180
$$   pcpd*2:0
$$   pcpd*4:180
$$   pcpd*2:0
$$   pcpd*3:180
$$   jump to 1
##$RELAX= 
##$BRUKER FILE EXP=format.temp
$$ EDIT_PAR COMMAND FILE
$$ 
$$ DI_MODE         LONG
$$ ED_ENTRY        ACQU
$$ ORDER           FILE
$$ 
$$ 
$$ HEADER		"F2 - Acquisition Parameters"
$$ T_NAME		Date_
$$ 		TYPE	R64
$$ 		CLASS	ACQU
$$ 		SUBRANGE 0.0 50000000
$$ 		REL	"Date_=itodate(DATE)"
$$ 		INV_REL	"DATE=datetoi(Date_,DATE)"
$$ 		FORMAT	"%14.0f"
$$ 		TEXT	" "
$$ END
$$ T_NAME		Time
$$ 		TYPE	R32
$$ 		CLASS	ACQU
$$ 		SUBRANGE 0.0 1000000
$$ 		REL	"Time=itotime(DATE)"
$$ 		INV_REL	"DATE=timetoi(Time,DATE)"
$$ 		FORMAT	"%14.2f"
$$ 		TEXT	" "
$$ END
$$ NAME		INSTRUM
$$ 		TEXT	" "
$$ END
$$ NAME		PROBHD
$$ 		FORMAT	"%14.14s"
$$ 		TEXT	" "
$$ END
$$ NAME		PULPROG
$$ 		TEXT	" "
$$ END
$$ NAME		TD
$$ 		TEXT	" "
$$ END
$$ NAME		SOLVENT
$$ 		TEXT	" "
$$ END
$$ NAME		NS
$$ 		TEXT	" "
$$ END
$$ NAME		DS
$$ 		TEXT	" "
$$ END
$$ T_NAME		SWH
$$ 		TYPE	R32
$$ 		CLASS	ACQU
$$ 		SUBRANGE 0.0 1e8
$$ 		REL	"SWH=SW*SFO1"
$$ 		INV_REL "SW=SWH/SFO1"
$$ 		UNIT	"Hz"
$$ 		FORMAT	"%14.3f Hz"
$$ 		TEXT	" "
$$ END
$$ T_NAME          FIDRES
$$                 TYPE    R32
$$                 CLASS   ACQU
$$                 SUBRANGE 0.0 100000
$$                 REL     "FIDRES=SW*SFO1/TD"
$$                 INV_REL "TD = nextpow(SW*SFO1/FIDRES)"
$$ 		UNIT	"Hz"
$$ 		FORMAT	"%14.6f Hz"
$$ 		TEXT	" "
$$ END
$$ T_NAME          AQ
$$ 		TYPE	R32
$$ 		CLASS	ACQU
$$ 		SUBRANGE 0.0 1000
$$ 		REL	"AQ=aqcalc(SW,SFO1,TD,DIGTYP)"
$$ 		INV_REL	"TD=tdcalc(SW,SFO1,1.0e6*AQ,DIGTYP)"
$$ 		UNIT	"sec"
$$ 		FORMAT	"%14.7f sec"
$$ 		TEXT	" "
$$ END
$$ NAME		RG
$$ 		TEXT	" "
$$ END
$$ T_NAME          DW
$$ 		TYPE	R32
$$ 		CLASS	ACQU
$$ 		SUBRANGE 0.0 1000000
$$ 		REL	"DW=1/(2*SW*SFO1)"
$$ 		INV_REL	"SW=1000000/(2*(0.005+DW)*SFO1)"
$$ 		UNIT	"usec"
$$ 		FORMAT	"%14.3lf usec"
$$ 		TEXT	" "
$$ END
$$ NAME		DE
$$ 		FORMAT	"%14.2f usec"
$$ 		TEXT	" "
$$ END
$$ NAME		TE
$$ 		FORMAT	"%14.1f K"
$$ 		TEXT	" "
$$ END
$$ T_NAME		D1
$$ 		TYPE	R32
$$ 		CLASS	ACQU
$$ 		SUBRANGE 0.0 1e38
$$ 		REL	"D1=D[1]"
$$ 		INV_REL	"D[1]=D1"
$$ 		UNIT	"sec"
$$ 		FORMAT	"%14.8f sec"
$$ 		TEXT	" "
$$ END
$$ T_NAME		D11
$$ 		TYPE	R32
$$ 		CLASS	ACQU
$$ 		SUBRANGE 0.0 1e38
$$ 		REL	"D11=D[11]"
$$ 		INV_REL	"D[11]=D11"
$$ 		UNIT	"sec"
$$ 		FORMAT	"%14.8f sec"
$$ 		TEXT	" "
$$ END
$$ NAME		TD0
$$ 		TEXT	" "
$$ END
$$ HEADER		"======== CHANNEL f1 ========"
$$ NAME		NUC1
$$ 		NONEDIT
$$ 		TEXT	" "
$$ END
$$ T_NAME		P1
$$ 		TYPE	R32
$$ 		CLASS	ACQU
$$ 		SUBRANGE 0.0 1.0e10
$$ 		REL	"P1=P[1]"
$$ 		INV_REL	"P[1]=P1"
$$ 		UNIT	"usec"
$$ 		FORMAT	"%14.2f usec"
$$ 		TEXT	" "
$$ END
$$ T_NAME		PL1
$$ 		TYPE	R32
$$ 		CLASS	ACQU
$$ 		SUBRANGE -6.0 1e38
$$ 		REL	"PL1=PL[1]"
$$ 		INV_REL	"PL[1]=PL1"
$$ 		UNIT	"dB"
$$ 		FORMAT	"%14.2f dB"
$$ 		TEXT	" "
$$ END
$$ T_NAME		PL1W
$$ 		TYPE	R32
$$ 		CLASS	ACQU
$$ 		SUBRANGE -6.0 1e38
$$ 		REL	"PL1W=329*pow(10.0,(-6-PL[1])/10.0)"
$$ 		INV_REL	"PL[1]=-6-4.3425*log(PL1W/329)"
$$ 		UNIT	"no"
$$ 		FORMAT	"%14.8f W"
$$ 		TEXT	" "
$$ END
$$ NAME		SFO1
$$ 		FORMAT	"%14.7f MHz"
$$ 		TEXT	" "
$$ END
$$ HEADER		"======== CHANNEL f2 ========"
$$ NAME		CPDPRG2
$$ 		TEXT	" "
$$ END
$$ NAME		NUC2
$$ 		NONEDIT
$$ 		TEXT	" "
$$ END
$$ T_NAME		PCPD2
$$ 		TYPE	R32
$$ 		CLASS	ACQU
$$ 		SUBRANGE 0 1e38
$$ 		REL	"PCPD2=PCPD[2]"
$$ 		INV_REL	"PCPD[2]=PCPD2"
$$ 		UNIT	"usec"
$$ 		FORMAT	"%14.2f usec"
$$ 		TEXT	" "
$$ END
$$ T_NAME		PL2
$$ 		TYPE	R32
$$ 		CLASS	ACQU
$$ 		SUBRANGE -6.0 1e38
$$ 		REL	"PL2=PL[2]"
$$ 		INV_REL	"PL[2]=PL2"
$$ 		UNIT	"dB"
$$ 		FORMAT	"%14.2f dB"
$$ 		TEXT	" "
$$ END
$$ T_NAME		PL12
$$ 		TYPE	R32
$$ 		CLASS	ACQU
$$ 		SUBRANGE -6.0 1e38
$$ 		REL	"PL12=PL[12]"
$$ 		INV_REL	"PL[12]=PL12"
$$ 		UNIT	"dB"
$$ 		FORMAT	"%14.2f dB"
$$ 		TEXT	" "
$$ END
$$ T_NAME		PL2W
$$ 		TYPE	R32
$$ 		CLASS	ACQU
$$ 		SUBRANGE -6.0 1e38
$$ 		REL	"PL2W=47*pow(10.0,(-6-PL[2])/10.0)"
$$ 		INV_REL	"PL[2]=-6-4.3425*log(PL2W/47)"
$$ 		UNIT	"no"
$$ 		FORMAT	"%14.8f W"
$$ 		TEXT	" "
$$ END
$$ T_NAME		PL12W
$$ 		TYPE	R32
$$ 		CLASS	ACQU
$$ 		SUBRANGE -6.0 1e38
$$ 		REL	"PL12W=47*pow(10.0,(-6-PL[12])/10.0)"
$$ 		INV_REL	"PL[12]=-6-4.3425*log(PL12W/47)"
$$ 		UNIT	"no"
$$ 		FORMAT	"%14.8f W"
$$ 		TEXT	" "
$$ END
$$ NAME		SFO2
$$ 		FORMAT	"%14.7f MHz"
$$ 		TEXT	" "
$$ END
##$RELAX= 
##$BRUKER FILE EXP=scon2
$$ ##TITLE= Parameter file, TOPSPIN		Version 2.1
$$ ##JCAMPDX= 5.0
$$ ##DATATYPE= Parameter Values
$$ ##NPOINTS= 1	$$ modification sequence number
$$ ##ORIGIN= Bruker BioSpin GmbH
$$ ##OWNER= NMR_mess
$$ $$ 2016-12-02 14:28:14.977 +0100  NMR_mess@av600.nmr.uni-koeln.de
$$ $$ /opt/topspin/data/NMR_mess/nmr/Prakt_Gr1_MethChLA/2/scon2
$$ $$ process /opt/topspin/prog/mod/go
$$ ##$BLKTR= (0..15)
3 3 3 3 3 3 3 3 3 3 3 3 3 3 3 3
$$ ##$DE1= 4.5
$$ ##$DEADC= 0.5
$$ ##$DEPA= 4.5
$$ ##$DERX= 1.5
$$ ##$FILCOR= 0
$$ ##END=
##$RELAX= 
##$BRUKER FILE EXP=spnam2
$$ ##TITLE= /u/exp/stan/nmr/lists/wave.dexam/Gaus1.1000
$$ ##JCAMP-DX= 5.00 Bruker JCAMP library
$$ ##DATA TYPE= Shape Data
$$ ##ORIGIN= Bruker Analytik GmbH
$$ ##OWNER= <demo>
$$ ##DATE= 01/05/08
$$ ##TIME= 12:57:44
$$ ##$SHAPE_PARAMETERS= Type: Gauss ; Truncation Level: 1 
$$ ##MINX= 1.000000e+00
$$ ##MAXX= 9.999954e+01
$$ ##MINY= 0.000000e+00
$$ ##MAXY= 0.000000e+00
$$ ##$SHAPE_EXMODE= Universal
$$ ##$SHAPE_TOTROT= 9.000000e+01
$$ ##$SHAPE_BWFAC= 2.122000e+00
$$ ##$SHAPE_INTEGFAC= 4.115776e-01
$$ ##$SHAPE_MODE= 0
$$ ##NPOINTS= 1000
$$ ##XYPOINTS= (XY..XY)
$$ 1.000000e+00, 0.000000e+00
$$ 1.018591e+00, 0.000000e+00
$$ 1.037490e+00, 0.000000e+00
$$ 1.056700e+00, 0.000000e+00
$$ 1.076227e+00, 0.000000e+00
$$ 1.096073e+00, 0.000000e+00
$$ 1.116245e+00, 0.000000e+00
$$ 1.136746e+00, 0.000000e+00
$$ 1.157580e+00, 0.000000e+00
$$ 1.178753e+00, 0.000000e+00
$$ 1.200269e+00, 0.000000e+00
$$ 1.222132e+00, 0.000000e+00
$$ 1.244348e+00, 0.000000e+00
$$ 1.266921e+00, 0.000000e+00
$$ 1.289855e+00, 0.000000e+00
$$ 1.313157e+00, 0.000000e+00
$$ 1.336830e+00, 0.000000e+00
$$ 1.360879e+00, 0.000000e+00
$$ 1.385310e+00, 0.000000e+00
$$ 1.410127e+00, 0.000000e+00
$$ 1.435337e+00, 0.000000e+00
$$ 1.460942e+00, 0.000000e+00
$$ 1.486950e+00, 0.000000e+00
$$ 1.513365e+00, 0.000000e+00
$$ 1.540192e+00, 0.000000e+00
$$ 1.567437e+00, 0.000000e+00
$$ 1.595105e+00, 0.000000e+00
$$ 1.623202e+00, 0.000000e+00
$$ 1.651732e+00, 0.000000e+00
$$ 1.680702e+00, 0.000000e+00
$$ 1.710117e+00, 0.000000e+00
$$ 1.739982e+00, 0.000000e+00
$$ 1.770304e+00, 0.000000e+00
$$ 1.801088e+00, 0.000000e+00
$$ 1.832339e+00, 0.000000e+00
$$ 1.864063e+00, 0.000000e+00
$$ 1.896267e+00, 0.000000e+00
$$ 1.928956e+00, 0.000000e+00
$$ 1.962136e+00, 0.000000e+00
$$ 1.995813e+00, 0.000000e+00
$$ 2.029994e+00, 0.000000e+00
$$ 2.064683e+00, 0.000000e+00
$$ 2.099888e+00, 0.000000e+00
$$ 2.135614e+00, 0.000000e+00
$$ 2.171868e+00, 0.000000e+00
$$ 2.208655e+00, 0.000000e+00
$$ 2.245983e+00, 0.000000e+00
$$ 2.283857e+00, 0.000000e+00
$$ 2.322285e+00, 0.000000e+00
$$ 2.361271e+00, 0.000000e+00
$$ 2.400824e+00, 0.000000e+00
$$ 2.440949e+00, 0.000000e+00
$$ 2.481653e+00, 0.000000e+00
$$ 2.522943e+00, 0.000000e+00
$$ 2.564825e+00, 0.000000e+00
$$ 2.607306e+00, 0.000000e+00
$$ 2.650393e+00, 0.000000e+00
$$ 2.694092e+00, 0.000000e+00
$$ 2.738411e+00, 0.000000e+00
$$ 2.783356e+00, 0.000000e+00
$$ 2.828934e+00, 0.000000e+00
$$ 2.875152e+00, 0.000000e+00
$$ 2.922018e+00, 0.000000e+00
$$ 2.969538e+00, 0.000000e+00
$$ 3.017720e+00, 0.000000e+00
$$ 3.066570e+00, 0.000000e+00
$$ 3.116095e+00, 0.000000e+00
$$ 3.166304e+00, 0.000000e+00
$$ 3.217203e+00, 0.000000e+00
$$ 3.268799e+00, 0.000000e+00
$$ 3.321101e+00, 0.000000e+00
$$ 3.374114e+00, 0.000000e+00
$$ 3.427848e+00, 0.000000e+00
$$ 3.482308e+00, 0.000000e+00
$$ 3.537503e+00, 0.000000e+00
$$ 3.593441e+00, 0.000000e+00
$$ 3.650128e+00, 0.000000e+00
$$ 3.707572e+00, 0.000000e+00
$$ 3.765782e+00, 0.000000e+00
$$ 3.824764e+00, 0.000000e+00
$$ 3.884526e+00, 0.000000e+00
$$ 3.945077e+00, 0.000000e+00
$$ 4.006424e+00, 0.000000e+00
$$ 4.068575e+00, 0.000000e+00
$$ 4.131537e+00, 0.000000e+00
$$ 4.195318e+00, 0.000000e+00
$$ 4.259927e+00, 0.000000e+00
$$ 4.325371e+00, 0.000000e+00
$$ 4.391659e+00, 0.000000e+00
$$ 4.458798e+00, 0.000000e+00
$$ 4.526796e+00, 0.000000e+00
$$ 4.595662e+00, 0.000000e+00
$$ 4.665402e+00, 0.000000e+00
$$ 4.736027e+00, 0.000000e+00
$$ 4.807543e+00, 0.000000e+00
$$ 4.879959e+00, 0.000000e+00
$$ 4.953282e+00, 0.000000e+00
$$ 5.027522e+00, 0.000000e+00
$$ 5.102687e+00, 0.000000e+00
$$ 5.178783e+00, 0.000000e+00
$$ 5.255821e+00, 0.000000e+00
$$ 5.333808e+00, 0.000000e+00
$$ 5.412752e+00, 0.000000e+00
$$ 5.492661e+00, 0.000000e+00
$$ 5.573545e+00, 0.000000e+00
$$ 5.655411e+00, 0.000000e+00
$$ 5.738268e+00, 0.000000e+00
$$ 5.822123e+00, 0.000000e+00
$$ 5.906986e+00, 0.000000e+00
$$ 5.992865e+00, 0.000000e+00
$$ 6.079768e+00, 0.000000e+00
$$ 6.167703e+00, 0.000000e+00
$$ 6.256679e+00, 0.000000e+00
$$ 6.346705e+00, 0.000000e+00
$$ 6.437788e+00, 0.000000e+00
$$ 6.529937e+00, 0.000000e+00
$$ 6.623161e+00, 0.000000e+00
$$ 6.717468e+00, 0.000000e+00
$$ 6.812866e+00, 0.000000e+00
$$ 6.909363e+00, 0.000000e+00
$$ 7.006969e+00, 0.000000e+00
$$ 7.105692e+00, 0.000000e+00
$$ 7.205539e+00, 0.000000e+00
$$ 7.306520e+00, 0.000000e+00
$$ 7.408642e+00, 0.000000e+00
$$ 7.511914e+00, 0.000000e+00
$$ 7.616345e+00, 0.000000e+00
$$ 7.721943e+00, 0.000000e+00
$$ 7.828715e+00, 0.000000e+00
$$ 7.936671e+00, 0.000000e+00
$$ 8.045819e+00, 0.000000e+00
$$ 8.156166e+00, 0.000000e+00
$$ 8.267722e+00, 0.000000e+00
$$ 8.380494e+00, 0.000000e+00
$$ 8.494491e+00, 0.000000e+00
$$ 8.609720e+00, 0.000000e+00
$$ 8.726191e+00, 0.000000e+00
$$ 8.843911e+00, 0.000000e+00
$$ 8.962887e+00, 0.000000e+00
$$ 9.083130e+00, 0.000000e+00
$$ 9.204645e+00, 0.000000e+00
$$ 9.327442e+00, 0.000000e+00
$$ 9.451528e+00, 0.000000e+00
$$ 9.576911e+00, 0.000000e+00
$$ 9.703600e+00, 0.000000e+00
$$ 9.831601e+00, 0.000000e+00
$$ 9.960923e+00, 0.000000e+00
$$ 1.009157e+01, 0.000000e+00
$$ 1.022356e+01, 0.000000e+00
$$ 1.035689e+01, 0.000000e+00
$$ 1.049157e+01, 0.000000e+00
$$ 1.062762e+01, 0.000000e+00
$$ 1.076502e+01, 0.000000e+00
$$ 1.090381e+01, 0.000000e+00
$$ 1.104397e+01, 0.000000e+00
$$ 1.118552e+01, 0.000000e+00
$$ 1.132847e+01, 0.000000e+00
$$ 1.147282e+01, 0.000000e+00
$$ 1.161859e+01, 0.000000e+00
$$ 1.176576e+01, 0.000000e+00
$$ 1.191437e+01, 0.000000e+00
$$ 1.206441e+01, 0.000000e+00
$$ 1.221588e+01, 0.000000e+00
$$ 1.236880e+01, 0.000000e+00
$$ 1.252317e+01, 0.000000e+00
$$ 1.267900e+01, 0.000000e+00
$$ 1.283630e+01, 0.000000e+00
$$ 1.299506e+01, 0.000000e+00
$$ 1.315531e+01, 0.000000e+00
$$ 1.331704e+01, 0.000000e+00
$$ 1.348026e+01, 0.000000e+00
$$ 1.364498e+01, 0.000000e+00
$$ 1.381120e+01, 0.000000e+00
$$ 1.397893e+01, 0.000000e+00
$$ 1.414817e+01, 0.000000e+00
$$ 1.431893e+01, 0.000000e+00
$$ 1.449122e+01, 0.000000e+00
$$ 1.466505e+01, 0.000000e+00
$$ 1.484040e+01, 0.000000e+00
$$ 1.501731e+01, 0.000000e+00
$$ 1.519575e+01, 0.000000e+00
$$ 1.537576e+01, 0.000000e+00
$$ 1.555732e+01, 0.000000e+00
$$ 1.574044e+01, 0.000000e+00
$$ 1.592513e+01, 0.000000e+00
$$ 1.611139e+01, 0.000000e+00
$$ 1.629923e+01, 0.000000e+00
$$ 1.648865e+01, 0.000000e+00
$$ 1.667966e+01, 0.000000e+00
$$ 1.687225e+01, 0.000000e+00
$$ 1.706644e+01, 0.000000e+00
$$ 1.726223e+01, 0.000000e+00
$$ 1.745962e+01, 0.000000e+00
$$ 1.765862e+01, 0.000000e+00
$$ 1.785922e+01, 0.000000e+00
$$ 1.806143e+01, 0.000000e+00
$$ 1.826527e+01, 0.000000e+00
$$ 1.847071e+01, 0.000000e+00
$$ 1.867779e+01, 0.000000e+00
$$ 1.888648e+01, 0.000000e+00
$$ 1.909680e+01, 0.000000e+00
$$ 1.930875e+01, 0.000000e+00
$$ 1.952234e+01, 0.000000e+00
$$ 1.973755e+01, 0.000000e+00
$$ 1.995440e+01, 0.000000e+00
$$ 2.017290e+01, 0.000000e+00
$$ 2.039303e+01, 0.000000e+00
$$ 2.061480e+01, 0.000000e+00
$$ 2.083821e+01, 0.000000e+00
$$ 2.106327e+01, 0.000000e+00
$$ 2.128997e+01, 0.000000e+00
$$ 2.151832e+01, 0.000000e+00
$$ 2.174831e+01, 0.000000e+00
$$ 2.197995e+01, 0.000000e+00
$$ 2.221324e+01, 0.000000e+00
$$ 2.244817e+01, 0.000000e+00
$$ 2.268476e+01, 0.000000e+00
$$ 2.292299e+01, 0.000000e+00
$$ 2.316286e+01, 0.000000e+00
$$ 2.340438e+01, 0.000000e+00
$$ 2.364755e+01, 0.000000e+00
$$ 2.389236e+01, 0.000000e+00
$$ 2.413882e+01, 0.000000e+00
$$ 2.438692e+01, 0.000000e+00
$$ 2.463666e+01, 0.000000e+00
$$ 2.488803e+01, 0.000000e+00
$$ 2.514105e+01, 0.000000e+00
$$ 2.539570e+01, 0.000000e+00
$$ 2.565198e+01, 0.000000e+00
$$ 2.590989e+01, 0.000000e+00
$$ 2.616942e+01, 0.000000e+00
$$ 2.643059e+01, 0.000000e+00
$$ 2.669337e+01, 0.000000e+00
$$ 2.695777e+01, 0.000000e+00
$$ 2.722378e+01, 0.000000e+00
$$ 2.749141e+01, 0.000000e+00
$$ 2.776064e+01, 0.000000e+00
$$ 2.803147e+01, 0.000000e+00
$$ 2.830390e+01, 0.000000e+00
$$ 2.857792e+01, 0.000000e+00
$$ 2.885353e+01, 0.000000e+00
$$ 2.913072e+01, 0.000000e+00
$$ 2.940949e+01, 0.000000e+00
$$ 2.968983e+01, 0.000000e+00
$$ 2.997174e+01, 0.000000e+00
$$ 3.025521e+01, 0.000000e+00
$$ 3.054023e+01, 0.000000e+00
$$ 3.082679e+01, 0.000000e+00
$$ 3.111490e+01, 0.000000e+00
$$ 3.140454e+01, 0.000000e+00
$$ 3.169571e+01, 0.000000e+00
$$ 3.198840e+01, 0.000000e+00
$$ 3.228259e+01, 0.000000e+00
$$ 3.257829e+01, 0.000000e+00
$$ 3.287549e+01, 0.000000e+00
$$ 3.317417e+01, 0.000000e+00
$$ 3.347433e+01, 0.000000e+00
$$ 3.377596e+01, 0.000000e+00
$$ 3.407905e+01, 0.000000e+00
$$ 3.438359e+01, 0.000000e+00
$$ 3.468957e+01, 0.000000e+00
$$ 3.499698e+01, 0.000000e+00
$$ 3.530581e+01, 0.000000e+00
$$ 3.561605e+01, 0.000000e+00
$$ 3.592769e+01, 0.000000e+00
$$ 3.624072e+01, 0.000000e+00
$$ 3.655513e+01, 0.000000e+00
$$ 3.687091e+01, 0.000000e+00
$$ 3.718804e+01, 0.000000e+00
$$ 3.750651e+01, 0.000000e+00
$$ 3.782631e+01, 0.000000e+00
$$ 3.814744e+01, 0.000000e+00
$$ 3.846986e+01, 0.000000e+00
$$ 3.879359e+01, 0.000000e+00
$$ 3.911859e+01, 0.000000e+00
$$ 3.944486e+01, 0.000000e+00
$$ 3.977238e+01, 0.000000e+00
$$ 4.010114e+01, 0.000000e+00
$$ 4.043112e+01, 0.000000e+00
$$ 4.076232e+01, 0.000000e+00
$$ 4.109471e+01, 0.000000e+00
$$ 4.142829e+01, 0.000000e+00
$$ 4.176303e+01, 0.000000e+00
$$ 4.209892e+01, 0.000000e+00
$$ 4.243594e+01, 0.000000e+00
$$ 4.277409e+01, 0.000000e+00
$$ 4.311333e+01, 0.000000e+00
$$ 4.345367e+01, 0.000000e+00
$$ 4.379507e+01, 0.000000e+00
$$ 4.413752e+01, 0.000000e+00
$$ 4.448102e+01, 0.000000e+00
$$ 4.482553e+01, 0.000000e+00
$$ 4.517104e+01, 0.000000e+00
$$ 4.551753e+01, 0.000000e+00
$$ 4.586499e+01, 0.000000e+00
$$ 4.621339e+01, 0.000000e+00
$$ 4.656273e+01, 0.000000e+00
$$ 4.691297e+01, 0.000000e+00
$$ 4.726410e+01, 0.000000e+00
$$ 4.761610e+01, 0.000000e+00
$$ 4.796895e+01, 0.000000e+00
$$ 4.832264e+01, 0.000000e+00
$$ 4.867713e+01, 0.000000e+00
$$ 4.903241e+01, 0.000000e+00
$$ 4.938847e+01, 0.000000e+00
$$ 4.974527e+01, 0.000000e+00
$$ 5.010280e+01, 0.000000e+00
$$ 5.046104e+01, 0.000000e+00
$$ 5.081997e+01, 0.000000e+00
$$ 5.117955e+01, 0.000000e+00
$$ 5.153978e+01, 0.000000e+00
$$ 5.190063e+01, 0.000000e+00
$$ 5.226208e+01, 0.000000e+00
$$ 5.262410e+01, 0.000000e+00
$$ 5.298667e+01, 0.000000e+00
$$ 5.334977e+01, 0.000000e+00
$$ 5.371337e+01, 0.000000e+00
$$ 5.407746e+01, 0.000000e+00
$$ 5.444201e+01, 0.000000e+00
$$ 5.480699e+01, 0.000000e+00
$$ 5.517238e+01, 0.000000e+00
$$ 5.553815e+01, 0.000000e+00
$$ 5.590429e+01, 0.000000e+00
$$ 5.627076e+01, 0.000000e+00
$$ 5.663755e+01, 0.000000e+00
$$ 5.700462e+01, 0.000000e+00
$$ 5.737195e+01, 0.000000e+00
$$ 5.773952e+01, 0.000000e+00
$$ 5.810730e+01, 0.000000e+00
$$ 5.847526e+01, 0.000000e+00
$$ 5.884338e+01, 0.000000e+00
$$ 5.921163e+01, 0.000000e+00
$$ 5.957999e+01, 0.000000e+00
$$ 5.994843e+01, 0.000000e+00
$$ 6.031691e+01, 0.000000e+00
$$ 6.068542e+01, 0.000000e+00
$$ 6.105393e+01, 0.000000e+00
$$ 6.142241e+01, 0.000000e+00
$$ 6.179083e+01, 0.000000e+00
$$ 6.215917e+01, 0.000000e+00
$$ 6.252740e+01, 0.000000e+00
$$ 6.289548e+01, 0.000000e+00
$$ 6.326340e+01, 0.000000e+00
$$ 6.363112e+01, 0.000000e+00
$$ 6.399861e+01, 0.000000e+00
$$ 6.436585e+01, 0.000000e+00
$$ 6.473281e+01, 0.000000e+00
$$ 6.509945e+01, 0.000000e+00
$$ 6.546576e+01, 0.000000e+00
$$ 6.583170e+01, 0.000000e+00
$$ 6.619724e+01, 0.000000e+00
$$ 6.656235e+01, 0.000000e+00
$$ 6.692700e+01, 0.000000e+00
$$ 6.729117e+01, 0.000000e+00
$$ 6.765482e+01, 0.000000e+00
$$ 6.801793e+01, 0.000000e+00
$$ 6.838046e+01, 0.000000e+00
$$ 6.874239e+01, 0.000000e+00
$$ 6.910368e+01, 0.000000e+00
$$ 6.946430e+01, 0.000000e+00
$$ 6.982423e+01, 0.000000e+00
$$ 7.018344e+01, 0.000000e+00
$$ 7.054188e+01, 0.000000e+00
$$ 7.089954e+01, 0.000000e+00
$$ 7.125639e+01, 0.000000e+00
$$ 7.161238e+01, 0.000000e+00
$$ 7.196750e+01, 0.000000e+00
$$ 7.232171e+01, 0.000000e+00
$$ 7.267498e+01, 0.000000e+00
$$ 7.302728e+01, 0.000000e+00
$$ 7.337857e+01, 0.000000e+00
$$ 7.372884e+01, 0.000000e+00
$$ 7.407804e+01, 0.000000e+00
$$ 7.442615e+01, 0.000000e+00
$$ 7.477314e+01, 0.000000e+00
$$ 7.511897e+01, 0.000000e+00
$$ 7.546361e+01, 0.000000e+00
$$ 7.580704e+01, 0.000000e+00
$$ 7.614922e+01, 0.000000e+00
$$ 7.649012e+01, 0.000000e+00
$$ 7.682971e+01, 0.000000e+00
$$ 7.716795e+01, 0.000000e+00
$$ 7.750483e+01, 0.000000e+00
$$ 7.784030e+01, 0.000000e+00
$$ 7.817434e+01, 0.000000e+00
$$ 7.850692e+01, 0.000000e+00
$$ 7.883800e+01, 0.000000e+00
$$ 7.916755e+01, 0.000000e+00
$$ 7.949554e+01, 0.000000e+00
$$ 7.982195e+01, 0.000000e+00
$$ 8.014674e+01, 0.000000e+00
$$ 8.046988e+01, 0.000000e+00
$$ 8.079134e+01, 0.000000e+00
$$ 8.111109e+01, 0.000000e+00
$$ 8.142910e+01, 0.000000e+00
$$ 8.174534e+01, 0.000000e+00
$$ 8.205978e+01, 0.000000e+00
$$ 8.237239e+01, 0.000000e+00
$$ 8.268313e+01, 0.000000e+00
$$ 8.299199e+01, 0.000000e+00
$$ 8.329892e+01, 0.000000e+00
$$ 8.360390e+01, 0.000000e+00
$$ 8.390690e+01, 0.000000e+00
$$ 8.420789e+01, 0.000000e+00
$$ 8.450684e+01, 0.000000e+00
$$ 8.480372e+01, 0.000000e+00
$$ 8.509850e+01, 0.000000e+00
$$ 8.539116e+01, 0.000000e+00
$$ 8.568165e+01, 0.000000e+00
$$ 8.596997e+01, 0.000000e+00
$$ 8.625607e+01, 0.000000e+00
$$ 8.653992e+01, 0.000000e+00
$$ 8.682151e+01, 0.000000e+00
$$ 8.710079e+01, 0.000000e+00
$$ 8.737775e+01, 0.000000e+00
$$ 8.765235e+01, 0.000000e+00
$$ 8.792457e+01, 0.000000e+00
$$ 8.819439e+01, 0.000000e+00
$$ 8.846176e+01, 0.000000e+00
$$ 8.872667e+01, 0.000000e+00
$$ 8.898908e+01, 0.000000e+00
$$ 8.924898e+01, 0.000000e+00
$$ 8.950633e+01, 0.000000e+00
$$ 8.976111e+01, 0.000000e+00
$$ 9.001329e+01, 0.000000e+00
$$ 9.026285e+01, 0.000000e+00
$$ 9.050976e+01, 0.000000e+00
$$ 9.075400e+01, 0.000000e+00
$$ 9.099553e+01, 0.000000e+00
$$ 9.123434e+01, 0.000000e+00
$$ 9.147040e+01, 0.000000e+00
$$ 9.170369e+01, 0.000000e+00
$$ 9.193418e+01, 0.000000e+00
$$ 9.216184e+01, 0.000000e+00
$$ 9.238666e+01, 0.000000e+00
$$ 9.260860e+01, 0.000000e+00
$$ 9.282766e+01, 0.000000e+00
$$ 9.304379e+01, 0.000000e+00
$$ 9.325699e+01, 0.000000e+00
$$ 9.346722e+01, 0.000000e+00
$$ 9.367448e+01, 0.000000e+00
$$ 9.387872e+01, 0.000000e+00
$$ 9.407994e+01, 0.000000e+00
$$ 9.427811e+01, 0.000000e+00
$$ 9.447320e+01, 0.000000e+00
$$ 9.466521e+01, 0.000000e+00
$$ 9.485411e+01, 0.000000e+00
$$ 9.503987e+01, 0.000000e+00
$$ 9.522248e+01, 0.000000e+00
$$ 9.540192e+01, 0.000000e+00
$$ 9.557818e+01, 0.000000e+00
$$ 9.575122e+01, 0.000000e+00
$$ 9.592103e+01, 0.000000e+00
$$ 9.608760e+01, 0.000000e+00
$$ 9.625091e+01, 0.000000e+00
$$ 9.641093e+01, 0.000000e+00
$$ 9.656765e+01, 0.000000e+00
$$ 9.672106e+01, 0.000000e+00
$$ 9.687114e+01, 0.000000e+00
$$ 9.701787e+01, 0.000000e+00
$$ 9.716123e+01, 0.000000e+00
$$ 9.730121e+01, 0.000000e+00
$$ 9.743780e+01, 0.000000e+00
$$ 9.757098e+01, 0.000000e+00
$$ 9.770073e+01, 0.000000e+00
$$ 9.782704e+01, 0.000000e+00
$$ 9.794990e+01, 0.000000e+00
$$ 9.806930e+01, 0.000000e+00
$$ 9.818522e+01, 0.000000e+00
$$ 9.829764e+01, 0.000000e+00
$$ 9.840656e+01, 0.000000e+00
$$ 9.851197e+01, 0.000000e+00
$$ 9.861384e+01, 0.000000e+00
$$ 9.871218e+01, 0.000000e+00
$$ 9.880697e+01, 0.000000e+00
$$ 9.889820e+01, 0.000000e+00
$$ 9.898586e+01, 0.000000e+00
$$ 9.906994e+01, 0.000000e+00
$$ 9.915043e+01, 0.000000e+00
$$ 9.922732e+01, 0.000000e+00
$$ 9.930061e+01, 0.000000e+00
$$ 9.937028e+01, 0.000000e+00
$$ 9.943633e+01, 0.000000e+00
$$ 9.949875e+01, 0.000000e+00
$$ 9.955754e+01, 0.000000e+00
$$ 9.961268e+01, 0.000000e+00
$$ 9.966418e+01, 0.000000e+00
$$ 9.971202e+01, 0.000000e+00
$$ 9.975620e+01, 0.000000e+00
$$ 9.979671e+01, 0.000000e+00
$$ 9.983356e+01, 0.000000e+00
$$ 9.986673e+01, 0.000000e+00
$$ 9.989623e+01, 0.000000e+00
$$ 9.992205e+01, 0.000000e+00
$$ 9.994418e+01, 0.000000e+00
$$ 9.996263e+01, 0.000000e+00
$$ 9.997739e+01, 0.000000e+00
$$ 9.998846e+01, 0.000000e+00
$$ 9.999585e+01, 0.000000e+00
$$ 9.999954e+01, 0.000000e+00
$$ 9.999954e+01, 0.000000e+00
$$ 9.999585e+01, 0.000000e+00
$$ 9.998846e+01, 0.000000e+00
$$ 9.997739e+01, 0.000000e+00
$$ 9.996263e+01, 0.000000e+00
$$ 9.994418e+01, 0.000000e+00
$$ 9.992205e+01, 0.000000e+00
$$ 9.989623e+01, 0.000000e+00
$$ 9.986673e+01, 0.000000e+00
$$ 9.983356e+01, 0.000000e+00
$$ 9.979671e+01, 0.000000e+00
$$ 9.975620e+01, 0.000000e+00
$$ 9.971202e+01, 0.000000e+00
$$ 9.966418e+01, 0.000000e+00
$$ 9.961268e+01, 0.000000e+00
$$ 9.955754e+01, 0.000000e+00
$$ 9.949875e+01, 0.000000e+00
$$ 9.943633e+01, 0.000000e+00
$$ 9.937028e+01, 0.000000e+00
$$ 9.930061e+01, 0.000000e+00
$$ 9.922732e+01, 0.000000e+00
$$ 9.915043e+01, 0.000000e+00
$$ 9.906994e+01, 0.000000e+00
$$ 9.898586e+01, 0.000000e+00
$$ 9.889820e+01, 0.000000e+00
$$ 9.880697e+01, 0.000000e+00
$$ 9.871218e+01, 0.000000e+00
$$ 9.861384e+01, 0.000000e+00
$$ 9.851197e+01, 0.000000e+00
$$ 9.840656e+01, 0.000000e+00
$$ 9.829764e+01, 0.000000e+00
$$ 9.818522e+01, 0.000000e+00
$$ 9.806930e+01, 0.000000e+00
$$ 9.794990e+01, 0.000000e+00
$$ 9.782704e+01, 0.000000e+00
$$ 9.770073e+01, 0.000000e+00
$$ 9.757098e+01, 0.000000e+00
$$ 9.743780e+01, 0.000000e+00
$$ 9.730121e+01, 0.000000e+00
$$ 9.716123e+01, 0.000000e+00
$$ 9.701787e+01, 0.000000e+00
$$ 9.687114e+01, 0.000000e+00
$$ 9.672106e+01, 0.000000e+00
$$ 9.656765e+01, 0.000000e+00
$$ 9.641093e+01, 0.000000e+00
$$ 9.625091e+01, 0.000000e+00
$$ 9.608760e+01, 0.000000e+00
$$ 9.592103e+01, 0.000000e+00
$$ 9.575122e+01, 0.000000e+00
$$ 9.557818e+01, 0.000000e+00
$$ 9.540192e+01, 0.000000e+00
$$ 9.522248e+01, 0.000000e+00
$$ 9.503987e+01, 0.000000e+00
$$ 9.485411e+01, 0.000000e+00
$$ 9.466521e+01, 0.000000e+00
$$ 9.447320e+01, 0.000000e+00
$$ 9.427811e+01, 0.000000e+00
$$ 9.407994e+01, 0.000000e+00
$$ 9.387872e+01, 0.000000e+00
$$ 9.367448e+01, 0.000000e+00
$$ 9.346722e+01, 0.000000e+00
$$ 9.325699e+01, 0.000000e+00
$$ 9.304379e+01, 0.000000e+00
$$ 9.282766e+01, 0.000000e+00
$$ 9.260860e+01, 0.000000e+00
$$ 9.238666e+01, 0.000000e+00
$$ 9.216184e+01, 0.000000e+00
$$ 9.193418e+01, 0.000000e+00
$$ 9.170369e+01, 0.000000e+00
$$ 9.147040e+01, 0.000000e+00
$$ 9.123434e+01, 0.000000e+00
$$ 9.099553e+01, 0.000000e+00
$$ 9.075400e+01, 0.000000e+00
$$ 9.050976e+01, 0.000000e+00
$$ 9.026285e+01, 0.000000e+00
$$ 9.001329e+01, 0.000000e+00
$$ 8.976111e+01, 0.000000e+00
$$ 8.950633e+01, 0.000000e+00
$$ 8.924898e+01, 0.000000e+00
$$ 8.898908e+01, 0.000000e+00
$$ 8.872667e+01, 0.000000e+00
$$ 8.846176e+01, 0.000000e+00
$$ 8.819439e+01, 0.000000e+00
$$ 8.792457e+01, 0.000000e+00
$$ 8.765235e+01, 0.000000e+00
$$ 8.737775e+01, 0.000000e+00
$$ 8.710079e+01, 0.000000e+00
$$ 8.682151e+01, 0.000000e+00
$$ 8.653992e+01, 0.000000e+00
$$ 8.625607e+01, 0.000000e+00
$$ 8.596997e+01, 0.000000e+00
$$ 8.568165e+01, 0.000000e+00
$$ 8.539116e+01, 0.000000e+00
$$ 8.509850e+01, 0.000000e+00
$$ 8.480372e+01, 0.000000e+00
$$ 8.450684e+01, 0.000000e+00
$$ 8.420789e+01, 0.000000e+00
$$ 8.390690e+01, 0.000000e+00
$$ 8.360390e+01, 0.000000e+00
$$ 8.329892e+01, 0.000000e+00
$$ 8.299199e+01, 0.000000e+00
$$ 8.268313e+01, 0.000000e+00
$$ 8.237239e+01, 0.000000e+00
$$ 8.205978e+01, 0.000000e+00
$$ 8.174534e+01, 0.000000e+00
$$ 8.142910e+01, 0.000000e+00
$$ 8.111109e+01, 0.000000e+00
$$ 8.079134e+01, 0.000000e+00
$$ 8.046988e+01, 0.000000e+00
$$ 8.014674e+01, 0.000000e+00
$$ 7.982195e+01, 0.000000e+00
$$ 7.949554e+01, 0.000000e+00
$$ 7.916755e+01, 0.000000e+00
$$ 7.883800e+01, 0.000000e+00
$$ 7.850692e+01, 0.000000e+00
$$ 7.817434e+01, 0.000000e+00
$$ 7.784030e+01, 0.000000e+00
$$ 7.750483e+01, 0.000000e+00
$$ 7.716795e+01, 0.000000e+00
$$ 7.682971e+01, 0.000000e+00
$$ 7.649012e+01, 0.000000e+00
$$ 7.614922e+01, 0.000000e+00
$$ 7.580704e+01, 0.000000e+00
$$ 7.546361e+01, 0.000000e+00
$$ 7.511897e+01, 0.000000e+00
$$ 7.477314e+01, 0.000000e+00
$$ 7.442615e+01, 0.000000e+00
$$ 7.407804e+01, 0.000000e+00
$$ 7.372884e+01, 0.000000e+00
$$ 7.337857e+01, 0.000000e+00
$$ 7.302728e+01, 0.000000e+00
$$ 7.267498e+01, 0.000000e+00
$$ 7.232171e+01, 0.000000e+00
$$ 7.196750e+01, 0.000000e+00
$$ 7.161238e+01, 0.000000e+00
$$ 7.125639e+01, 0.000000e+00
$$ 7.089954e+01, 0.000000e+00
$$ 7.054188e+01, 0.000000e+00
$$ 7.018344e+01, 0.000000e+00
$$ 6.982423e+01, 0.000000e+00
$$ 6.946430e+01, 0.000000e+00
$$ 6.910368e+01, 0.000000e+00
$$ 6.874239e+01, 0.000000e+00
$$ 6.838046e+01, 0.000000e+00
$$ 6.801793e+01, 0.000000e+00
$$ 6.765482e+01, 0.000000e+00
$$ 6.729117e+01, 0.000000e+00
$$ 6.692700e+01, 0.000000e+00
$$ 6.656235e+01, 0.000000e+00
$$ 6.619724e+01, 0.000000e+00
$$ 6.583170e+01, 0.000000e+00
$$ 6.546576e+01, 0.000000e+00
$$ 6.509945e+01, 0.000000e+00
$$ 6.473281e+01, 0.000000e+00
$$ 6.436585e+01, 0.000000e+00
$$ 6.399861e+01, 0.000000e+00
$$ 6.363112e+01, 0.000000e+00
$$ 6.326340e+01, 0.000000e+00
$$ 6.289548e+01, 0.000000e+00
$$ 6.252740e+01, 0.000000e+00
$$ 6.215917e+01, 0.000000e+00
$$ 6.179083e+01, 0.000000e+00
$$ 6.142241e+01, 0.000000e+00
$$ 6.105393e+01, 0.000000e+00
$$ 6.068542e+01, 0.000000e+00
$$ 6.031691e+01, 0.000000e+00
$$ 5.994843e+01, 0.000000e+00
$$ 5.957999e+01, 0.000000e+00
$$ 5.921163e+01, 0.000000e+00
$$ 5.884338e+01, 0.000000e+00
$$ 5.847526e+01, 0.000000e+00
$$ 5.810730e+01, 0.000000e+00
$$ 5.773952e+01, 0.000000e+00
$$ 5.737195e+01, 0.000000e+00
$$ 5.700462e+01, 0.000000e+00
$$ 5.663755e+01, 0.000000e+00
$$ 5.627076e+01, 0.000000e+00
$$ 5.590429e+01, 0.000000e+00
$$ 5.553815e+01, 0.000000e+00
$$ 5.517238e+01, 0.000000e+00
$$ 5.480699e+01, 0.000000e+00
$$ 5.444201e+01, 0.000000e+00
$$ 5.407746e+01, 0.000000e+00
$$ 5.371337e+01, 0.000000e+00
$$ 5.334977e+01, 0.000000e+00
$$ 5.298667e+01, 0.000000e+00
$$ 5.262410e+01, 0.000000e+00
$$ 5.226208e+01, 0.000000e+00
$$ 5.190063e+01, 0.000000e+00
$$ 5.153978e+01, 0.000000e+00
$$ 5.117955e+01, 0.000000e+00
$$ 5.081997e+01, 0.000000e+00
$$ 5.046104e+01, 0.000000e+00
$$ 5.010280e+01, 0.000000e+00
$$ 4.974527e+01, 0.000000e+00
$$ 4.938847e+01, 0.000000e+00
$$ 4.903241e+01, 0.000000e+00
$$ 4.867713e+01, 0.000000e+00
$$ 4.832264e+01, 0.000000e+00
$$ 4.796895e+01, 0.000000e+00
$$ 4.761610e+01, 0.000000e+00
$$ 4.726410e+01, 0.000000e+00
$$ 4.691297e+01, 0.000000e+00
$$ 4.656273e+01, 0.000000e+00
$$ 4.621339e+01, 0.000000e+00
$$ 4.586499e+01, 0.000000e+00
$$ 4.551753e+01, 0.000000e+00
$$ 4.517104e+01, 0.000000e+00
$$ 4.482553e+01, 0.000000e+00
$$ 4.448102e+01, 0.000000e+00
$$ 4.413752e+01, 0.000000e+00
$$ 4.379507e+01, 0.000000e+00
$$ 4.345367e+01, 0.000000e+00
$$ 4.311333e+01, 0.000000e+00
$$ 4.277409e+01, 0.000000e+00
$$ 4.243594e+01, 0.000000e+00
$$ 4.209892e+01, 0.000000e+00
$$ 4.176303e+01, 0.000000e+00
$$ 4.142829e+01, 0.000000e+00
$$ 4.109471e+01, 0.000000e+00
$$ 4.076232e+01, 0.000000e+00
$$ 4.043112e+01, 0.000000e+00
$$ 4.010114e+01, 0.000000e+00
$$ 3.977238e+01, 0.000000e+00
$$ 3.944486e+01, 0.000000e+00
$$ 3.911859e+01, 0.000000e+00
$$ 3.879359e+01, 0.000000e+00
$$ 3.846986e+01, 0.000000e+00
$$ 3.814744e+01, 0.000000e+00
$$ 3.782631e+01, 0.000000e+00
$$ 3.750651e+01, 0.000000e+00
$$ 3.718804e+01, 0.000000e+00
$$ 3.687091e+01, 0.000000e+00
$$ 3.655513e+01, 0.000000e+00
$$ 3.624072e+01, 0.000000e+00
$$ 3.592769e+01, 0.000000e+00
$$ 3.561605e+01, 0.000000e+00
$$ 3.530581e+01, 0.000000e+00
$$ 3.499698e+01, 0.000000e+00
$$ 3.468957e+01, 0.000000e+00
$$ 3.438359e+01, 0.000000e+00
$$ 3.407905e+01, 0.000000e+00
$$ 3.377596e+01, 0.000000e+00
$$ 3.347433e+01, 0.000000e+00
$$ 3.317417e+01, 0.000000e+00
$$ 3.287549e+01, 0.000000e+00
$$ 3.257829e+01, 0.000000e+00
$$ 3.228259e+01, 0.000000e+00
$$ 3.198840e+01, 0.000000e+00
$$ 3.169571e+01, 0.000000e+00
$$ 3.140454e+01, 0.000000e+00
$$ 3.111490e+01, 0.000000e+00
$$ 3.082679e+01, 0.000000e+00
$$ 3.054023e+01, 0.000000e+00
$$ 3.025521e+01, 0.000000e+00
$$ 2.997174e+01, 0.000000e+00
$$ 2.968983e+01, 0.000000e+00
$$ 2.940949e+01, 0.000000e+00
$$ 2.913072e+01, 0.000000e+00
$$ 2.885353e+01, 0.000000e+00
$$ 2.857792e+01, 0.000000e+00
$$ 2.830390e+01, 0.000000e+00
$$ 2.803147e+01, 0.000000e+00
$$ 2.776064e+01, 0.000000e+00
$$ 2.749141e+01, 0.000000e+00
$$ 2.722378e+01, 0.000000e+00
$$ 2.695777e+01, 0.000000e+00
$$ 2.669337e+01, 0.000000e+00
$$ 2.643059e+01, 0.000000e+00
$$ 2.616942e+01, 0.000000e+00
$$ 2.590989e+01, 0.000000e+00
$$ 2.565198e+01, 0.000000e+00
$$ 2.539570e+01, 0.000000e+00
$$ 2.514105e+01, 0.000000e+00
$$ 2.488803e+01, 0.000000e+00
$$ 2.463666e+01, 0.000000e+00
$$ 2.438692e+01, 0.000000e+00
$$ 2.413882e+01, 0.000000e+00
$$ 2.389236e+01, 0.000000e+00
$$ 2.364755e+01, 0.000000e+00
$$ 2.340438e+01, 0.000000e+00
$$ 2.316286e+01, 0.000000e+00
$$ 2.292299e+01, 0.000000e+00
$$ 2.268476e+01, 0.000000e+00
$$ 2.244817e+01, 0.000000e+00
$$ 2.221324e+01, 0.000000e+00
$$ 2.197995e+01, 0.000000e+00
$$ 2.174831e+01, 0.000000e+00
$$ 2.151832e+01, 0.000000e+00
$$ 2.128997e+01, 0.000000e+00
$$ 2.106327e+01, 0.000000e+00
$$ 2.083821e+01, 0.000000e+00
$$ 2.061480e+01, 0.000000e+00
$$ 2.039303e+01, 0.000000e+00
$$ 2.017290e+01, 0.000000e+00
$$ 1.995440e+01, 0.000000e+00
$$ 1.973755e+01, 0.000000e+00
$$ 1.952234e+01, 0.000000e+00
$$ 1.930875e+01, 0.000000e+00
$$ 1.909680e+01, 0.000000e+00
$$ 1.888648e+01, 0.000000e+00
$$ 1.867779e+01, 0.000000e+00
$$ 1.847071e+01, 0.000000e+00
$$ 1.826527e+01, 0.000000e+00
$$ 1.806143e+01, 0.000000e+00
$$ 1.785922e+01, 0.000000e+00
$$ 1.765862e+01, 0.000000e+00
$$ 1.745962e+01, 0.000000e+00
$$ 1.726223e+01, 0.000000e+00
$$ 1.706644e+01, 0.000000e+00
$$ 1.687225e+01, 0.000000e+00
$$ 1.667966e+01, 0.000000e+00
$$ 1.648865e+01, 0.000000e+00
$$ 1.629923e+01, 0.000000e+00
$$ 1.611139e+01, 0.000000e+00
$$ 1.592513e+01, 0.000000e+00
$$ 1.574044e+01, 0.000000e+00
$$ 1.555732e+01, 0.000000e+00
$$ 1.537576e+01, 0.000000e+00
$$ 1.519575e+01, 0.000000e+00
$$ 1.501731e+01, 0.000000e+00
$$ 1.484040e+01, 0.000000e+00
$$ 1.466505e+01, 0.000000e+00
$$ 1.449122e+01, 0.000000e+00
$$ 1.431893e+01, 0.000000e+00
$$ 1.414817e+01, 0.000000e+00
$$ 1.397893e+01, 0.000000e+00
$$ 1.381120e+01, 0.000000e+00
$$ 1.364498e+01, 0.000000e+00
$$ 1.348026e+01, 0.000000e+00
$$ 1.331704e+01, 0.000000e+00
$$ 1.315531e+01, 0.000000e+00
$$ 1.299506e+01, 0.000000e+00
$$ 1.283630e+01, 0.000000e+00
$$ 1.267900e+01, 0.000000e+00
$$ 1.252317e+01, 0.000000e+00
$$ 1.236880e+01, 0.000000e+00
$$ 1.221588e+01, 0.000000e+00
$$ 1.206441e+01, 0.000000e+00
$$ 1.191437e+01, 0.000000e+00
$$ 1.176576e+01, 0.000000e+00
$$ 1.161859e+01, 0.000000e+00
$$ 1.147282e+01, 0.000000e+00
$$ 1.132847e+01, 0.000000e+00
$$ 1.118552e+01, 0.000000e+00
$$ 1.104397e+01, 0.000000e+00
$$ 1.090381e+01, 0.000000e+00
$$ 1.076502e+01, 0.000000e+00
$$ 1.062762e+01, 0.000000e+00
$$ 1.049157e+01, 0.000000e+00
$$ 1.035689e+01, 0.000000e+00
$$ 1.022356e+01, 0.000000e+00
$$ 1.009157e+01, 0.000000e+00
$$ 9.960923e+00, 0.000000e+00
$$ 9.831601e+00, 0.000000e+00
$$ 9.703600e+00, 0.000000e+00
$$ 9.576911e+00, 0.000000e+00
$$ 9.451528e+00, 0.000000e+00
$$ 9.327442e+00, 0.000000e+00
$$ 9.204645e+00, 0.000000e+00
$$ 9.083130e+00, 0.000000e+00
$$ 8.962887e+00, 0.000000e+00
$$ 8.843911e+00, 0.000000e+00
$$ 8.726191e+00, 0.000000e+00
$$ 8.609720e+00, 0.000000e+00
$$ 8.494491e+00, 0.000000e+00
$$ 8.380494e+00, 0.000000e+00
$$ 8.267722e+00, 0.000000e+00
$$ 8.156166e+00, 0.000000e+00
$$ 8.045819e+00, 0.000000e+00
$$ 7.936671e+00, 0.000000e+00
$$ 7.828715e+00, 0.000000e+00
$$ 7.721943e+00, 0.000000e+00
$$ 7.616345e+00, 0.000000e+00
$$ 7.511914e+00, 0.000000e+00
$$ 7.408642e+00, 0.000000e+00
$$ 7.306520e+00, 0.000000e+00
$$ 7.205539e+00, 0.000000e+00
$$ 7.105692e+00, 0.000000e+00
$$ 7.006969e+00, 0.000000e+00
$$ 6.909363e+00, 0.000000e+00
$$ 6.812866e+00, 0.000000e+00
$$ 6.717468e+00, 0.000000e+00
$$ 6.623161e+00, 0.000000e+00
$$ 6.529937e+00, 0.000000e+00
$$ 6.437788e+00, 0.000000e+00
$$ 6.346705e+00, 0.000000e+00
$$ 6.256679e+00, 0.000000e+00
$$ 6.167703e+00, 0.000000e+00
$$ 6.079768e+00, 0.000000e+00
$$ 5.992865e+00, 0.000000e+00
$$ 5.906986e+00, 0.000000e+00
$$ 5.822123e+00, 0.000000e+00
$$ 5.738268e+00, 0.000000e+00
$$ 5.655411e+00, 0.000000e+00
$$ 5.573545e+00, 0.000000e+00
$$ 5.492661e+00, 0.000000e+00
$$ 5.412752e+00, 0.000000e+00
$$ 5.333808e+00, 0.000000e+00
$$ 5.255821e+00, 0.000000e+00
$$ 5.178783e+00, 0.000000e+00
$$ 5.102687e+00, 0.000000e+00
$$ 5.027522e+00, 0.000000e+00
$$ 4.953282e+00, 0.000000e+00
$$ 4.879959e+00, 0.000000e+00
$$ 4.807543e+00, 0.000000e+00
$$ 4.736027e+00, 0.000000e+00
$$ 4.665402e+00, 0.000000e+00
$$ 4.595662e+00, 0.000000e+00
$$ 4.526796e+00, 0.000000e+00
$$ 4.458798e+00, 0.000000e+00
$$ 4.391659e+00, 0.000000e+00
$$ 4.325371e+00, 0.000000e+00
$$ 4.259927e+00, 0.000000e+00
$$ 4.195318e+00, 0.000000e+00
$$ 4.131537e+00, 0.000000e+00
$$ 4.068575e+00, 0.000000e+00
$$ 4.006424e+00, 0.000000e+00
$$ 3.945077e+00, 0.000000e+00
$$ 3.884526e+00, 0.000000e+00
$$ 3.824764e+00, 0.000000e+00
$$ 3.765782e+00, 0.000000e+00
$$ 3.707572e+00, 0.000000e+00
$$ 3.650128e+00, 0.000000e+00
$$ 3.593441e+00, 0.000000e+00
$$ 3.537503e+00, 0.000000e+00
$$ 3.482308e+00, 0.000000e+00
$$ 3.427848e+00, 0.000000e+00
$$ 3.374114e+00, 0.000000e+00
$$ 3.321101e+00, 0.000000e+00
$$ 3.268799e+00, 0.000000e+00
$$ 3.217203e+00, 0.000000e+00
$$ 3.166304e+00, 0.000000e+00
$$ 3.116095e+00, 0.000000e+00
$$ 3.066570e+00, 0.000000e+00
$$ 3.017720e+00, 0.000000e+00
$$ 2.969538e+00, 0.000000e+00
$$ 2.922018e+00, 0.000000e+00
$$ 2.875152e+00, 0.000000e+00
$$ 2.828934e+00, 0.000000e+00
$$ 2.783356e+00, 0.000000e+00
$$ 2.738411e+00, 0.000000e+00
$$ 2.694092e+00, 0.000000e+00
$$ 2.650393e+00, 0.000000e+00
$$ 2.607306e+00, 0.000000e+00
$$ 2.564825e+00, 0.000000e+00
$$ 2.522943e+00, 0.000000e+00
$$ 2.481653e+00, 0.000000e+00
$$ 2.440949e+00, 0.000000e+00
$$ 2.400824e+00, 0.000000e+00
$$ 2.361271e+00, 0.000000e+00
$$ 2.322285e+00, 0.000000e+00
$$ 2.283857e+00, 0.000000e+00
$$ 2.245983e+00, 0.000000e+00
$$ 2.208655e+00, 0.000000e+00
$$ 2.171868e+00, 0.000000e+00
$$ 2.135614e+00, 0.000000e+00
$$ 2.099888e+00, 0.000000e+00
$$ 2.064683e+00, 0.000000e+00
$$ 2.029994e+00, 0.000000e+00
$$ 1.995813e+00, 0.000000e+00
$$ 1.962136e+00, 0.000000e+00
$$ 1.928956e+00, 0.000000e+00
$$ 1.896267e+00, 0.000000e+00
$$ 1.864063e+00, 0.000000e+00
$$ 1.832339e+00, 0.000000e+00
$$ 1.801088e+00, 0.000000e+00
$$ 1.770304e+00, 0.000000e+00
$$ 1.739982e+00, 0.000000e+00
$$ 1.710117e+00, 0.000000e+00
$$ 1.680702e+00, 0.000000e+00
$$ 1.651732e+00, 0.000000e+00
$$ 1.623202e+00, 0.000000e+00
$$ 1.595105e+00, 0.000000e+00
$$ 1.567437e+00, 0.000000e+00
$$ 1.540192e+00, 0.000000e+00
$$ 1.513365e+00, 0.000000e+00
$$ 1.486950e+00, 0.000000e+00
$$ 1.460942e+00, 0.000000e+00
$$ 1.435337e+00, 0.000000e+00
$$ 1.410127e+00, 0.000000e+00
$$ 1.385310e+00, 0.000000e+00
$$ 1.360879e+00, 0.000000e+00
$$ 1.336830e+00, 0.000000e+00
$$ 1.313157e+00, 0.000000e+00
$$ 1.289855e+00, 0.000000e+00
$$ 1.266921e+00, 0.000000e+00
$$ 1.244348e+00, 0.000000e+00
$$ 1.222132e+00, 0.000000e+00
$$ 1.200269e+00, 0.000000e+00
$$ 1.178753e+00, 0.000000e+00
$$ 1.157580e+00, 0.000000e+00
$$ 1.136746e+00, 0.000000e+00
$$ 1.116245e+00, 0.000000e+00
$$ 1.096073e+00, 0.000000e+00
$$ 1.076227e+00, 0.000000e+00
$$ 1.056700e+00, 0.000000e+00
$$ 1.037490e+00, 0.000000e+00
$$ 1.018591e+00, 0.000000e+00
$$ 1.000000e+00, 0.000000e+00
$$ ##END= 
##$RELAX= 
##$BRUKER FILE EXP=pulseprogram
$$ # 1 "/opt/topspin/exp/stan/nmr/lists/pp/zgdc30"
$$ ;zgdc30
$$ ;avance-version (07/04/03)
$$ ;1D sequence with decoupling
$$ ;using 30 degree flip angle
$$ ;
$$ ;$CLASS=HighRes
$$ ;$DIM=1D
$$ ;$TYPE=
$$ ;$SUBTYPE=
$$ ;$COMMENT=
$$ 
$$ 
$$ # 1 "/opt/topspin/exp/stan/nmr/lists/pp/Avance.incl" 1
$$ ;Avance3.incl
$$ ;   for AV III
$$ ;
$$ ;avance-version (07/12/14)
$$ ;
$$ ;$CLASS=HighRes Incl
$$ ;$COMMENT=
$$ 
$$ 
$$ 
$$ 
$$ 
$$ 
$$ 
$$ 
$$ 
$$ 
$$ 
$$ 
$$ 
$$ 
$$ 
$$ 
$$ 
$$ 
$$ 
$$ 
$$ 
$$ 
$$ 
$$ 
$$ 
$$ 
$$ 
$$ 
$$ 
$$ 
$$ 
$$ 
$$ 
$$ 
$$ 
$$ 
$$ 
$$ 
$$ 
$$ 
$$ 
$$ 
$$ 
$$ 
$$ 
$$ 
$$ 
$$ 
$$ 
$$ 
$$ 
$$ 
$$ 
$$ 
$$ 
$$ 
$$ 
$$ 
$$ 
$$ 
$$ 
$$ 
$$ 
$$ 
$$ 
$$ 
$$ 
$$ 
$$ 
$$ 
$$ 
$$ 
$$ 
$$ 
$$ 
$$ 
$$ 
$$ 
$$ 
$$ 
$$ 
$$ 
$$ 
$$ 
$$ 
$$ 
$$ 
$$ 
$$ 
$$ 
$$ 
$$ 
$$ 
$$ 
$$ 
$$ 
$$ 
$$ 
$$ 
$$ 
$$ 
$$ 
$$ 
$$ 
$$ 
$$ 
$$ 
$$ 
$$ 
$$ 
$$ 
$$ 
$$ 
$$ 
$$ 
$$ 
$$ 
$$ 
$$ 
$$ 
$$ 
$$ 
$$ 
$$ 
$$ 
$$ 
$$ 
$$ 
$$ 
$$ 
$$ 
$$ 
$$ 
$$ 
$$ 
$$ 
$$ 
$$ 
$$ 
$$ 
$$ 
$$ 
$$ 
$$ 
$$ 
$$ 
$$ 
$$ 
$$ 
$$ 
$$ 
$$ 
$$ 
$$ 
$$ 
$$ 
$$ 
$$ ;$Id: Avance3.incl,v 1.6.2.2 2007/12/14 16:06:46 ber Exp $
$$ # 13 "/opt/topspin/exp/stan/nmr/lists/pp/zgdc30" 2
$$ 
$$ 
$$ 
$$ "d11=30m"
$$ 
$$ 
$$ "acqt0=-p1*0.66/3.1416"
$$ 
$$ 
$$ # 1 "mc_line 22 file /opt/topspin/exp/stan/nmr/lists/pp/zgdc30 expanding definition part of mc command before ze"
$$ define delay MCWRK
$$ define delay MCREST
$$ "MCWRK = 0.333333*30m"
$$ "MCREST = 30m - 30m"
$$     dccorr
$$ # 22 "/opt/topspin/exp/stan/nmr/lists/pp/zgdc30"
$$ 1 ze
$$ # 1 "mc_line 22 file /opt/topspin/exp/stan/nmr/lists/pp/zgdc30 expanding definition of mc command after ze"
$$ # 23 "/opt/topspin/exp/stan/nmr/lists/pp/zgdc30"
$$   d11 pl12:f2 
$$ # 1 "mc_line 24 file /opt/topspin/exp/stan/nmr/lists/pp/zgdc30 expanding start label for mc command"
$$ 2 MCWRK  * 2 do:f2
$$ LBLF0, MCWRK 
$$   MCREST
$$ # 25 "/opt/topspin/exp/stan/nmr/lists/pp/zgdc30"
$$   d11 cpd2:f2
$$   d1
$$   p1*0.33 ph1
$$   go=2 ph31
$$ # 1 "mc_line 29 file /opt/topspin/exp/stan/nmr/lists/pp/zgdc30 expanding mc command in line"
$$   MCWRK do:f2 wr #0
$$   MCWRK zd 
$$   lo to LBLF0 times td0
$$ 
$$   MCWRK
$$ # 30 "/opt/topspin/exp/stan/nmr/lists/pp/zgdc30"
$$ exit
$$ 
$$ 
$$ ph1=0 2 2 0 1 3 3 1
$$ ph31=0 2 2 0 1 3 3 1
$$ 
$$ 
$$ ;pl1 : f1 channel - power level for pulse (default)
$$ ;pl12: f2 channel - power level for CPD/BB decoupling
$$ ;p1 : f1 channel -  90 degree high power pulse
$$ ;d1 : relaxation delay; 1-5 * T1
$$ ;d11: delay for disk I/O                             [30 msec]
$$ ;NS: 1 * n, total number of scans: NS * TD0
$$ ;cpd2: decoupling according to sequence defined by cpdprg2
$$ ;pcpd2: f2 channel - 90 degree pulse for decoupling sequence
$$ 
$$ 
$$ 
$$ ;$Id: zgdc30,v 1.10 2007/04/11 13:34:31 ber Exp $
##$RELAX= 
##$BRUKER FILE EXP=shimvalues
$$ # Fri Dec  2 14:29:26 2016
$$ #$$PROBEID=34
$$ #$$PROBEINFO=5 mm BBO BB-1H/D Z-GRD Z8478/0071
$$ #$$PICSINFO=Z8478_0071_34.par
$$ #
$$ # Active Shim Gradients
$$ #
$$ Z           		-11534          
$$ Z2          		-1072           
$$ Z3          		6916            
$$ Z4          		-2944           
$$ Z5          		1935            
$$ Z6          		-843            
$$ X           		1219            
$$ XZ          		578             
$$ XZ2         		9238            
$$ XZ3         		633             
$$ XZ4         		1136            
$$ XZ5         		-6350           
$$ Y           		1280            
$$ YZ          		663             
$$ YZ2         		190             
$$ YZ3         		-1621           
$$ YZ4         		-25             
$$ YZ5         		-1120           
$$ XY          		296             
$$ XYZ         		7419            
$$ XYZ2        		2530            
$$ XYZ3        		-1745           
$$ XYZ4        		3130            
$$ XYZ5        		6388            
$$ (X2-Y2)     		-228            
$$ (X2-Y2)Z    		5640            
$$ (X2-Y2)Z2   		-1165           
$$ (X2-Y2)Z3   		4238            
$$ (X2-Y2)Z4   		4996            
$$ (X2-Y2)Z5   		1510            
$$ X3          		795             
$$ X3Z         		2675            
$$ Y3          		235             
$$ Y3Z         		5139            
$$ #
$$ # Lock Parameter
$$ #
$$ LOCKPHASE		95.000  
$$ LOCKPOWER		-30.000 
$$ LOCKGAIN		104.147 
$$ LOCKDC		-75.000 
$$ LOCKSHIFT		2.490   
$$ FIELD		5606.547
$$ LOOPGAIN		5.000   
$$ LOOPTIME		0.250   
$$ LOOPFILTER		200.000 
$$ #
$$ IEEE64_VERSION_CODE 1
$$ #
$$ # Shim currents 
$$ #
$$ SHIM_SETTING [1 ]  -5594.05389136  
$$ SHIM_SETTING [2 ]  -1072.12135855  
$$ SHIM_SETTING [3 ]  6916.36641451   
$$ SHIM_SETTING [4 ]  0.00000000      
$$ SHIM_SETTING [5 ]  -2944.46431505  
$$ SHIM_SETTING [6 ]  1934.88231310   
$$ SHIM_SETTING [7 ]  -843.00000000   
$$ SHIM_SETTING [8 ]  0.00000000      
$$ SHIM_SETTING [9 ]  0.00000000      
$$ SHIM_SETTING [10]  -1880.00000000  
$$ SHIM_SETTING [11]  3470.00000000   
$$ SHIM_SETTING [12]  -4904.00000000  
$$ SHIM_SETTING [13]  5374.00000000   
$$ SHIM_SETTING [14]  0.00000000      
$$ SHIM_SETTING [15]  9975.96044685   
$$ SHIM_SETTING [16]  12083.37020487  
$$ SHIM_SETTING [17]  -7657.15512848  
$$ SHIM_SETTING [18]  -4107.95234555  
$$ SHIM_SETTING [19]  -7156.58111301  
$$ SHIM_SETTING [20]  4443.92556161   
$$ SHIM_SETTING [21]  10221.98930466  
$$ SHIM_SETTING [22]  -8209.01595853  
$$ SHIM_SETTING [23]  -2569.32694094  
$$ SHIM_SETTING [24]  -6172.42909478  
$$ SHIM_SETTING [25]  10819.27443599  
$$ SHIM_SETTING [26]  -3197.59177302  
$$ SHIM_SETTING [27]  0.00000000      
$$ SHIM_SETTING [28]  139.29739577    
$$ SHIM_SETTING [29]  8011.71976637   
$$ SHIM_SETTING [30]  -4590.29123364  
$$ SHIM_SETTING [31]  2870.68983379   
$$ SHIM_SETTING [32]  2522.17929829   
$$ SHIM_SETTING [33]  12187.00862412  
$$ SHIM_SETTING [34]  -3838.32437588  
$$ SHIM_SETTING [35]  3784.90534612   
$$ SHIM_SETTING [36]  -13158.31665388 
$$ SHIM_SETTING [37]  2676.96534695   
$$ SHIM_SETTING [38]  -1619.37607715  
$$ SHIM_SETTING [39]  -506.07728411   
$$ SHIM_SETTING [40]  0.00000000      
##$RELAX= 
##$BRUKER FILE EXP=uxnmr.par
$$ ##TITLE= Parameter file, TOPSPIN		Version 2.1
$$ ##JCAMPDX= 5.0
$$ ##DATATYPE= Parameter Values
$$ ##NPOINTS= 531	$$ modification sequence number
$$ ##ORIGIN= Bruker BioSpin GmbH
$$ ##OWNER= nmrsu
$$ $$ 2016-10-18 12:46:49.163 +0200  NMR_mess@av600.nmr.uni-koeln.de
$$ $$ /opt/topspin/conf/instr/spect/uxnmr.par
$$ $$ process /opt/topspin/prog/mod/confamp
$$ ##$ACB= 0
$$ ##$ACBTAT= (0..15)
0 88 72 88 50 0 0 0 0 0 0 0 0 0 0 0
$$ ##$ACBTBA= (0..15)
0 0 0 0 0 0 0 0 0 0 0 0 0 0 0 0
$$ ##$ACBTBLK= (0..15)
0 1 1 1 0 0 0 0 0 0 0 0 0 0 0 0
$$ ##$ACBTCTL= (0..15)
0 6 6 6 6 0 0 0 0 0 0 0 0 0 0 0
$$ ##$ACBTDI= (0..15)
0 -1779670023 -1779670024 -1779670024 -1779670024 0 0 0 0 0 0 0 0 0 0 0
$$ ##$ACBTDM= (0..15)
0 10 25 10 10 0 0 0 0 0 0 0 0 0 0 0
$$ ##$ACBTFHI= (0..15)
0 365 600 365 92 0 0 0 0 0 0 0 0 0 0 0
$$ ##$ACBTFL= (0..15)
0 248 248 248 88 0 0 0 0 0 0 0 0 0 0 0
$$ ##$ACBTFLO= (0..15)
0 6 180 6 30 0 0 0 0 0 0 0 0 0 0 0
$$ ##$ACBTINP= (0..15)
0 3 2 1 9 0 0 0 0 0 0 0 0 0 0 0
$$ ##$ACBTOUT= (0..15)
0 1 1 2 3 0 0 0 0 0 0 0 0 0 0 0
$$ ##$ACBTPO= (0..15)
0 300000 100000 300000 150000 0 0 0 0 0 0 0 0 0 0 0
$$ ##$ACBTPW= (0..15)
0 100 100 100 5 0 0 0 0 0 0 0 0 0 0 0
$$ ##$ACBTSB= (0..15)
0 0 0 0 0 0 0 0 0 0 0 0 0 0 0 0
$$ ##$ACBTY= <no>
$$ ##$AQSBDCH= (0..95)
0 0 0 0 0 0 0 0 255 255 255 255 255 255 255 255 255 255 255 255 255 255
255 255 255 255 255 255 255 255 255 255 255 255 255 255 255 255 255 255
255 255 255 255 255 255 255 255 255 255 255 255 255 255 255 255 255 255
255 255 255 255 255 255 255 255 255 255 255 255 255 255 255 255 255 255
255 255 255 255 255 255 255 255 255 255 255 255 255 255 255 255 255 255
255 255
$$ ##$AQSBDHW= (0..95)
3 1 8 8 8 0 0 0 255 255 255 255 255 255 255 255 255 255 255 255 255 255
255 255 255 255 255 255 255 255 255 255 255 255 255 255 255 255 255 255
255 255 255 255 255 255 255 255 255 255 255 255 255 255 255 255 255 255
255 255 255 255 255 255 255 255 255 255 255 255 255 255 255 255 255 255
255 255 255 255 255 255 255 255 255 255 255 255 255 255 255 255 255 255
255 255
$$ ##$AQSBDID= (0..95)
82 88 83 83 83 80 66 66 255 255 255 255 255 255 255 255 255 255 255 255
255 255 255 255 255 255 255 255 255 255 255 255 255 255 255 255 255 255
255 255 255 255 255 255 255 255 255 255 255 255 255 255 255 255 255 255
255 255 255 255 255 255 255 255 255 255 255 255 255 255 255 255 255 255
255 255 255 255 255 255 255 255 255 255 255 255 255 255 255 255 255 255
255 255 255 255
$$ ##$AQSBDNO= (0..95)
1 1 1 2 3 1 1 1 255 255 255 255 255 255 255 255 255 255 255 255 255 255
255 255 255 255 255 255 255 255 255 255 255 255 255 255 255 255 255 255
255 255 255 255 255 255 255 255 255 255 255 255 255 255 255 255 255 255
255 255 255 255 255 255 255 255 255 255 255 255 255 255 255 255 255 255
255 255 255 255 255 255 255 255 255 255 255 255 255 255 255 255 255 255
255 255
$$ ##$AQSBDSL= (0..95)
2 3 4 5 6 21 23 25 255 255 255 255 255 255 255 255 255 255 255 255 255
255 255 255 255 255 255 255 255 255 255 255 255 255 255 255 255 255 255
255 255 255 255 255 255 255 255 255 255 255 255 255 255 255 255 255 255
255 255 255 255 255 255 255 255 255 255 255 255 255 255 255 255 255 255
255 255 255 255 255 255 255 255 255 255 255 255 255 255 255 255 255 255
255 255 255
$$ ##$AQSBDTY= (0..95)
66 192 25 25 25 207 198 7 255 255 255 255 255 255 255 255 255 255 255 255
255 255 255 255 255 255 255 255 255 255 255 255 255 255 255 255 255 255
255 255 255 255 255 255 255 255 255 255 255 255 255 255 255 255 255 255
255 255 255 255 255 255 255 255 255 255 255 255 255 255 255 255 255 255
255 255 255 255 255 255 255 255 255 255 255 255 255 255 255 255 255 255
255 255 255 255
$$ ##$AQSBUAD= (0..95)
16 52 36 37 38 33 32 32 255 255 255 255 255 255 255 255 255 255 255 255
255 255 255 255 255 255 255 255 255 255 255 255 255 255 255 255 255 255
255 255 255 255 255 255 255 255 255 255 255 255 255 255 255 255 255 255
255 255 255 255 255 255 255 255 255 255 255 255 255 255 255 255 255 255
255 255 255 255 255 255 255 255 255 255 255 255 255 255 255 255 255 255
255 255 255 255
$$ ##$AQSECL= (0..95)
3 1 2 2 2 0 1 255 255 255 255 255 255 255 255 255 255 255 255 255 255 255
255 255 255 255 255 255 255 255 255 255 255 255 255 255 255 255 255 255
255 255 255 255 255 255 255 255 255 255 255 255 255 255 255 255 255 255
255 255 255 255 255 255 255 255 255 255 255 255 255 255 255 255 255 255
255 255 255 255 255 255 255 255 255 255 255 255 255 255 255 255 255 255
255 255
$$ ##$AQSECLS= (0..95)
0 0 0 0 0 0 2 255 255 255 255 255 255 255 255 255 255 255 255 255 255 255
255 255 255 255 255 255 255 255 255 255 255 255 255 255 255 255 255 255
255 255 255 255 255 255 255 255 255 255 255 255 255 255 255 255 255 255
255 255 255 255 255 255 255 255 255 255 255 255 255 255 255 255 255 255
255 255 255 255 255 255 255 255 255 255 255 255 255 255 255 255 255 255
255 255
$$ ##$AQSSPLT= no
$$ ##$ATT19F= (0..1)
0 0
$$ ##$ATT1H= (0..1)
0 0
$$ ##$ATT3H= (0..1)
0 0
$$ ##$ATTX= (0..1)
0 0
$$ ##$ATTY= (0..1)
0 0
$$ ##$ATTZ= (0..1)
0 0
$$ ##$BACSAIR= yes
$$ ##$BACSCAP= 0
$$ ##$BACSDEL= 10
$$ ##$BACSFCM= no
$$ ##$BACSOPT= <>
$$ ##$BACSTY= <no>
$$ ##$BARPTY= <no>
$$ ##$BFREQ= 600.2
$$ ##$BGAETH1= <no>
$$ ##$BGAETH2= <no>
$$ ##$BGAETH3= <no>
$$ ##$BGAETH4= <no>
$$ ##$BGAETH5= <no>
$$ ##$BGAETH6= <no>
$$ ##$BGAETH7= <no>
$$ ##$BGAETH8= <no>
$$ ##$BIRDS= yes
$$ ##$BMPC= 0
$$ ##$BMPCTY= <no>
$$ ##$BPSUTY= <no>
$$ ##$BSMS= 2
$$ ##$BSMSETH= <149.236.99.20>
$$ ##$BSMSTY= <no>
$$ ##$CFASMOD= (0..7)
1 1 1 1 1 1 1 1
$$ ##$CFASMUL= (0..7)
1 1 1 1 1 1 1 1
$$ ##$CNFTXDR= (0..7)
6 6 6 0 0 0 0 0
$$ ##$COMDIG2= 0
$$ ##$CPDBTY= <no>
$$ ##$CRCOTY= <no>
$$ ##$CSW1= (0..31)
3 0 0 2 2 2 9 0 0 0 0 0 0 0 0 0 0 0 0 0 0 0 0 0 0 0 0 0 0 0 0 0
$$ ##$CSW2= (0..31)
0 0 0 1 1 1 0 0 0 0 0 0 0 0 0 0 0 0 0 0 0 0 0 0 0 0 0 0 0 0 0 0
$$ ##$CSWNUM= (0..7)
3 4 0 0 0 0 0 0
$$ ##$DATSTAT= no
$$ ##$DIGI140= (0..7)
0 0 0 0 0 0 0 0
$$ ##$DIGIB12= (0..7)
0 0 0 0 0 0 0 0
$$ ##$DIGIB16= (0..7)
0 0 0 0 0 0 0 0
$$ ##$DIGIFA= (0..7)
0 0 0 0 0 0 0 0
$$ ##$DIGIHA= (0..7)
0 0 0 0 0 0 0 0
$$ ##$DIGIHAF= (0..7)
0 0 0 0 0 0 0 0
$$ ##$DIGIHRD= (0..7)
0 0 0 0 0 0 0 0
$$ ##$DIGIIA= (0..7)
0 0 0 0 0 0 0 0
$$ ##$DIGIO16= (0..7)
0 0 0 0 0 0 0 0
$$ ##$DIGISA= (0..7)
0 0 0 0 0 0 0 0
$$ ##$DIGISAF= (0..7)
0 0 0 0 0 0 0 0
$$ ##$DIGISL= (0..7)
0 0 0 0 0 0 0 0
$$ ##$DIGITYI= (0..7)
0 0 0 0 0 0 0 0
$$ ##$DIGITYP= (0..7)
0 0 0 0 0 0 0 0
$$ ##$DIGITZ= 0
$$ ##$DRU= yes
$$ ##$DRUETH01= <149.236.99.89>
$$ ##$DRUETH02= <no>
$$ ##$DRUETH03= <no>
$$ ##$DRUETH04= <no>
$$ ##$DRUETH05= <no>
$$ ##$DRUETH06= <no>
$$ ##$DRUETH07= <no>
$$ ##$DRUETH08= <no>
$$ ##$DRUETH09= <no>
$$ ##$DRUETH10= <no>
$$ ##$DRUETH11= <no>
$$ ##$DRUETH12= <no>
$$ ##$DRUETH13= <no>
$$ ##$DRUETH14= <no>
$$ ##$DRUETH15= <no>
$$ ##$DRUETH16= <no>
$$ ##$DRUETH17= <no>
$$ ##$DRUETH18= <no>
$$ ##$DRUETH19= <no>
$$ ##$DRUETH20= <no>
$$ ##$DRUETH21= <no>
$$ ##$DRUETH22= <no>
$$ ##$DRUETH23= <no>
$$ ##$DRUETH24= <no>
$$ ##$DRUETH25= <no>
$$ ##$DRUETH26= <no>
$$ ##$DRUETH27= <no>
$$ ##$DRUETH28= <no>
$$ ##$DRUETH29= <no>
$$ ##$DRUETH30= <no>
$$ ##$DRUETH31= <no>
$$ ##$DRUETH32= <no>
$$ ##$FCUMEM= (0..7)
16777208 16777208 16777208 0 0 0 0 0
$$ ##$FCUPAL= (0..7)
0 0 0 0 0 0 0 0
$$ ##$FGSVTY= <no>
$$ ##$FQMIX= 0
$$ ##$FUNCMOD= <>
$$ ##$GCUTYPE= 10
$$ ##$GPREDEL= 1
$$ ##$GPSCUTY= <no>
$$ ##$GRADRES= 5
$$ ##$GTUTY= <no>
$$ ##$HFAC= 3
$$ ##$HPCU= 0
$$ ##$HPCUTY= <no>
$$ ##$HPTXLP= (0..3)
-1 -1 -1 -1
$$ ##$HPTXPI= (0..3)
0 0 0 0
$$ ##$HPTXPO= (0..3)
0 0 0 0
$$ ##$HPTXTY= (0..3)
0 0 0 0
$$ ##$IF451= 0
$$ ##$IFREQ= 1
$$ ##$INTFPR= 0
$$ ##$IPSOETH= <149.236.99.251>
$$ ##$LOCKTY= <no>
$$ ##$LOCSWID= 0
$$ ##$LOCSWIF= 0
$$ ##$M2FAC= 0
$$ ##$MAS= 0
$$ ##$MASETIME= 10
$$ ##$MASITIME= 10
$$ ##$MASTY= <no>
$$ ##$MAS_CT= 0
$$ ##$MAS_SG= 0
$$ ##$MAS_TO= 0
$$ ##$MEMPRM= 0
$$ ##$MHFAC= 0
$$ ##$MXFAC= 0
$$ ##$NAMPD1= <1H LNA>
$$ ##$NAMPD10= <>
$$ ##$NAMPD11= <>
$$ ##$NAMPD12= <>
$$ ##$NAMPD13= <>
$$ ##$NAMPD14= <>
$$ ##$NAMPD15= <>
$$ ##$NAMPD16= <>
$$ ##$NAMPD2= <XBB19F 2HS>
$$ ##$NAMPD3= <XBB19F 2HP>
$$ ##$NAMPD4= <2H>
$$ ##$NAMPD5= <>
$$ ##$NAMPD6= <>
$$ ##$NAMPD7= <>
$$ ##$NAMPD8= <>
$$ ##$NAMPD9= <>
$$ ##$NFCU= 3
$$ ##$NMRCH= 2
$$ ##$NMRMEM= 16384
$$ ##$NRCU= 1
$$ ##$NROUT= 0
$$ ##$NSGU= 3
$$ ##$PAMPF1= (0..15)
75 24 64 64 96 0 0 0 0 0 0 0 0 0 0 0
$$ ##$PAMPF2= (0..15)
0 0 0 0 0 0 0 0 0 0 0 0 0 0 0 0
$$ ##$PAMPF3= (0..15)
0 0 0 0 0 0 0 0 0 0 0 0 0 0 0 0
$$ ##$PAMPF4= (0..15)
0 0 0 0 0 0 0 0 0 0 0 0 0 0 0 0
$$ ##$PAMPF5= (0..15)
0 0 0 0 0 0 0 0 0 0 0 0 0 0 0 0
$$ ##$PAMPF6= (0..15)
0 0 0 0 0 0 0 0 0 0 0 0 0 0 0 0
$$ ##$PAMPF7= (0..15)
0 0 0 0 0 0 0 0 0 0 0 0 0 0 0 0
$$ ##$PAMPF8= (0..15)
0 0 0 0 0 0 0 0 0 0 0 0 0 0 0 0
$$ ##$PH4= 0
$$ ##$PHF4TY= <no>
$$ ##$POWCHK= no
$$ ##$PRAMD1= (0..7)
2 0 0 536870912 0 0 0 0
$$ ##$PRAMD10= (0..7)
0 0 0 0 0 0 0 0
$$ ##$PRAMD11= (0..7)
0 0 0 0 0 0 0 0
$$ ##$PRAMD12= (0..7)
0 0 0 0 0 0 0 0
$$ ##$PRAMD13= (0..7)
0 0 0 0 0 0 0 0
$$ ##$PRAMD14= (0..7)
0 0 0 0 0 0 0 0
$$ ##$PRAMD15= (0..7)
0 0 0 0 0 0 0 0
$$ ##$PRAMD16= (0..7)
0 0 0 0 0 0 0 0
$$ ##$PRAMD17= (0..7)
0 0 0 0 0 0 0 0
$$ ##$PRAMD18= (0..7)
0 0 0 0 0 0 0 0
$$ ##$PRAMD19= (0..7)
0 0 0 0 0 0 0 0
$$ ##$PRAMD2= (0..7)
2147483644 2131230719 2147483647 671088639 0 0 0 0
$$ ##$PRAMD20= (0..7)
0 0 0 0 0 0 0 0
$$ ##$PRAMD21= (0..7)
0 0 0 0 0 0 0 0
$$ ##$PRAMD3= (0..7)
2147483644 2147483647 2147483647 671088639 0 0 0 0
$$ ##$PRAMD4= (0..7)
0 1048576 0 536870912 0 1048576 0 536870912
$$ ##$PRAMD5= (0..7)
0 0 0 0 0 0 0 0
$$ ##$PRAMD6= (0..7)
0 0 0 0 0 0 0 0
$$ ##$PRAMD7= (0..7)
0 0 0 0 0 0 0 0
$$ ##$PRAMD8= (0..7)
0 0 0 0 0 0 0 0
$$ ##$PRAMD9= (0..7)
0 0 0 0 0 0 0 0
$$ ##$PRAMLED= (0..1)
15 15
$$ ##$PRAMP1= <tty10>
$$ ##$PRAMP2= <no>
$$ ##$PRAMP3= <no>
$$ ##$PRAMP4= <no>
$$ ##$PRAMP5= <no>
$$ ##$PRAMP6= <no>
$$ ##$PRAMP7= <no>
$$ ##$PRAMP8= <no>
$$ ##$PRAMPTP= 1
$$ ##$PREPTY= <no>
$$ ##$PRESHLD= 0
$$ ##$PTS160= -1
$$ ##$PTSA2X= (0..7)
0 0 0 0 0 0 0 0
$$ ##$PTSF2X= (0..7)
0 0 0 0 0 0 0 0
$$ ##$PTSFMX= (0..7)
643.52499 643.52499 643.52499 0 0 0 0 0
$$ ##$PULCHK= no
$$ ##$RCUCDS= (0..7)
0 0 0 0 0 0 0 0
$$ ##$RCUCFS= (0..7)
0 0 0 0 0 0 0 0
$$ ##$RCUCSS= (0..7)
0 0 0 0 0 0 0 0
$$ ##$RCUI2C1= (0..7)
0 0 0 0 0 0 0 0
$$ ##$RCUI2C2= (0..7)
0 0 0 0 0 0 0 0
$$ ##$RCUI2C3= (0..7)
0 0 0 0 0 0 0 0
$$ ##$RCUI2C4= (0..7)
0 0 0 0 0 0 0 0
$$ ##$RCUI2C5= (0..7)
0 0 0 0 0 0 0 0
$$ ##$RCUI2C6= (0..7)
0 0 0 0 0 0 0 0
$$ ##$RCUI2C7= (0..7)
0 0 0 0 0 0 0 0
$$ ##$RCUI2C8= (0..7)
0 0 0 0 0 0 0 0
$$ ##$RDCU= 0
$$ ##$RFSVTY= <no>
$$ ##$RGTYPE= (0..31)
9 0 0 0 0 0 0 0 0 0 0 0 0 0 0 0 0 0 0 0 0 0 0 0 0 0 0 0 0 0 0 0
$$ ##$RG_max= (0..31)
46300 0 0 0 0 0 0 0 0 0 0 0 0 0 0 0 0 0 0 0 0 0 0 0 0 0 0 0 0 0 0 0
$$ ##$RG_min= (0..31)
0.25 0 0 0 0 0 0 0 0 0 0 0 0 0 0 0 0 0 0 0 0 0 0 0 0 0 0 0 0 0 0 0
$$ ##$RG_tab1= (0..255)
0.25 0.28 0.32 0.35 0.4 0.44 0.5 0.56 0.64 0.7 0.8 0.89 1 1.12 1.28 1.4
1.6 1.78 2 2.25 2.56 2.8 3.2 3.56 4 4.5 5 5.6 6.35 7.12 8 9 10 11.3 12.7
14.2 16 18 20.2 22.6 25.4 28.5 32 36 40.3 45.2 50.8 57 64 71.8 80.6 90.5
101 114 128 144 161 181 203 228 256 287 322 362 406 456 512 575 645 724
812 912 1030 1150 1290 1440 1620 1820 2050 -1 -1 -1 -1 -1 -1 -1 -1 -1 -1
-1 -1 -1 -1 -1 -1 -1 -1 -1 -1 -1 -1 -1 -1 -1 -1 -1 -1 -1 -1 -1 -1 -1 -1
-1 -1 -1 -1 -1 -1 -1 -1 -1 -1 -1 -1 -1 -1 -1 -1 -1 -1 -1 -1 -1 -1 -1 -1
-1 -1 -1 -1 -1 -1 -1 -1 -1 -1 -1 -1 -1 -1 -1 -1 -1 -1 -1 -1 -1 -1 -1 -1
-1 -1 -1 -1 -1 -1 -1 -1 -1 -1 -1 -1 -1 -1 -1 -1 -1 -1 -1 -1 -1 -1 -1 -1
-1 -1 -1 -1 -1 -1 -1 -1 -1 -1 -1 -1 -1 -1 -1 -1 -1 -1 -1 -1 -1 -1 -1 -1
-1 -1 -1 -1 -1 -1 -1 -1 -1 -1 -1 -1 -1 -1 -1 -1 -1 -1 -1 -1 -1 -1 -1 -1
-1 -1 -1 -1 -1 -1 -1 -1 -1 -1 -1 -1 -1 -1 -1 -1 -1 -1 -1 -1 -1 -1 -1
$$ ##$RG_tab2= (0..255)
-1 -1 -1 -1 -1 -1 -1 -1 -1 -1 -1 -1 -1 -1 -1 -1 -1 -1 -1 -1 -1 -1 -1 -1
-1 -1 -1 -1 -1 -1 -1 -1 -1 -1 -1 -1 -1 -1 -1 -1 -1 -1 -1 -1 -1 -1 -1 -1
-1 -1 -1 -1 -1 -1 -1 -1 -1 -1 -1 -1 -1 -1 -1 -1 -1 -1 -1 -1 -1 -1 -1 -1
-1 -1 -1 -1 -1 -1 -1 -1 -1 -1 -1 -1 -1 -1 -1 -1 -1 -1 -1 -1 -1 -1 -1 -1
-1 -1 -1 -1 -1 -1 -1 -1 -1 -1 -1 -1 -1 -1 -1 -1 -1 -1 -1 -1 -1 -1 -1 -1
-1 -1 -1 -1 -1 -1 -1 -1 -1 -1 -1 -1 -1 -1 -1 -1 -1 -1 -1 -1 -1 -1 -1 -1
-1 -1 -1 -1 -1 -1 -1 -1 -1 -1 -1 -1 -1 -1 -1 -1 -1 -1 -1 -1 -1 -1 -1 -1
-1 -1 -1 -1 -1 -1 -1 -1 -1 -1 -1 -1 -1 -1 -1 -1 -1 -1 -1 -1 -1 -1 -1 -1
-1 -1 -1 -1 -1 -1 -1 -1 -1 -1 -1 -1 -1 -1 -1 -1 -1 -1 -1 -1 -1 -1 -1 -1
-1 -1 -1 -1 -1 -1 -1 -1 -1 -1 -1 -1 -1 -1 -1 -1 -1 -1 -1 -1 -1 -1 -1 -1
-1 -1 -1 -1 -1 -1 -1 -1 -1 -1 -1 -1 -1 -1 -1 -1
$$ ##$RG_tab3= (0..255)
-1 -1 -1 -1 -1 -1 -1 -1 -1 -1 -1 -1 -1 -1 -1 -1 -1 -1 -1 -1 -1 -1 -1 -1
-1 -1 -1 -1 -1 -1 -1 -1 -1 -1 -1 -1 -1 -1 -1 -1 -1 -1 -1 -1 -1 -1 -1 -1
-1 -1 -1 -1 -1 -1 -1 -1 -1 -1 -1 -1 -1 -1 -1 -1 -1 -1 -1 -1 -1 -1 -1 -1
-1 -1 -1 -1 -1 -1 -1 -1 -1 -1 -1 -1 -1 -1 -1 -1 -1 -1 -1 -1 -1 -1 -1 -1
-1 -1 -1 -1 -1 -1 -1 -1 -1 -1 -1 -1 -1 -1 -1 -1 -1 -1 -1 -1 -1 -1 -1 -1
-1 -1 -1 -1 -1 -1 -1 -1 -1 -1 -1 -1 -1 -1 -1 -1 -1 -1 -1 -1 -1 -1 -1 -1
-1 -1 -1 -1 -1 -1 -1 -1 -1 -1 -1 -1 -1 -1 -1 -1 -1 -1 -1 -1 -1 -1 -1 -1
-1 -1 -1 -1 -1 -1 -1 -1 -1 -1 -1 -1 -1 -1 -1 -1 -1 -1 -1 -1 -1 -1 -1 -1
-1 -1 -1 -1 -1 -1 -1 -1 -1 -1 -1 -1 -1 -1 -1 -1 -1 -1 -1 -1 -1 -1 -1 -1
-1 -1 -1 -1 -1 -1 -1 -1 -1 -1 -1 -1 -1 -1 -1 -1 -1 -1 -1 -1 -1 -1 -1 -1
-1 -1 -1 -1 -1 -1 -1 -1 -1 -1 -1 -1 -1 -1 -1 -1
$$ ##$RG_tab4= (0..255)
-1 -1 -1 -1 -1 -1 -1 -1 -1 -1 -1 -1 -1 -1 -1 -1 -1 -1 -1 -1 -1 -1 -1 -1
-1 -1 -1 -1 -1 -1 -1 -1 -1 -1 -1 -1 -1 -1 -1 -1 -1 -1 -1 -1 -1 -1 -1 -1
-1 -1 -1 -1 -1 -1 -1 -1 -1 -1 -1 -1 -1 -1 -1 -1 -1 -1 -1 -1 -1 -1 -1 -1
-1 -1 -1 -1 -1 -1 -1 -1 -1 -1 -1 -1 -1 -1 -1 -1 -1 -1 -1 -1 -1 -1 -1 -1
-1 -1 -1 -1 -1 -1 -1 -1 -1 -1 -1 -1 -1 -1 -1 -1 -1 -1 -1 -1 -1 -1 -1 -1
-1 -1 -1 -1 -1 -1 -1 -1 -1 -1 -1 -1 -1 -1 -1 -1 -1 -1 -1 -1 -1 -1 -1 -1
-1 -1 -1 -1 -1 -1 -1 -1 -1 -1 -1 -1 -1 -1 -1 -1 -1 -1 -1 -1 -1 -1 -1 -1
-1 -1 -1 -1 -1 -1 -1 -1 -1 -1 -1 -1 -1 -1 -1 -1 -1 -1 -1 -1 -1 -1 -1 -1
-1 -1 -1 -1 -1 -1 -1 -1 -1 -1 -1 -1 -1 -1 -1 -1 -1 -1 -1 -1 -1 -1 -1 -1
-1 -1 -1 -1 -1 -1 -1 -1 -1 -1 -1 -1 -1 -1 -1 -1 -1 -1 -1 -1 -1 -1 -1 -1
-1 -1 -1 -1 -1 -1 -1 -1 -1 -1 -1 -1 -1 -1 -1 -1
$$ ##$RG_tab5= (0..255)
-1 -1 -1 -1 -1 -1 -1 -1 -1 -1 -1 -1 -1 -1 -1 -1 -1 -1 -1 -1 -1 -1 -1 -1
-1 -1 -1 -1 -1 -1 -1 -1 -1 -1 -1 -1 -1 -1 -1 -1 -1 -1 -1 -1 -1 -1 -1 -1
-1 -1 -1 -1 -1 -1 -1 -1 -1 -1 -1 -1 -1 -1 -1 -1 -1 -1 -1 -1 -1 -1 -1 -1
-1 -1 -1 -1 -1 -1 -1 -1 -1 -1 -1 -1 -1 -1 -1 -1 -1 -1 -1 -1 -1 -1 -1 -1
-1 -1 -1 -1 -1 -1 -1 -1 -1 -1 -1 -1 -1 -1 -1 -1 -1 -1 -1 -1 -1 -1 -1 -1
-1 -1 -1 -1 -1 -1 -1 -1 -1 -1 -1 -1 -1 -1 -1 -1 -1 -1 -1 -1 -1 -1 -1 -1
-1 -1 -1 -1 -1 -1 -1 -1 -1 -1 -1 -1 -1 -1 -1 -1 -1 -1 -1 -1 -1 -1 -1 -1
-1 -1 -1 -1 -1 -1 -1 -1 -1 -1 -1 -1 -1 -1 -1 -1 -1 -1 -1 -1 -1 -1 -1 -1
-1 -1 -1 -1 -1 -1 -1 -1 -1 -1 -1 -1 -1 -1 -1 -1 -1 -1 -1 -1 -1 -1 -1 -1
-1 -1 -1 -1 -1 -1 -1 -1 -1 -1 -1 -1 -1 -1 -1 -1 -1 -1 -1 -1 -1 -1 -1 -1
-1 -1 -1 -1 -1 -1 -1 -1 -1 -1 -1 -1 -1 -1 -1 -1
$$ ##$RG_tab6= (0..255)
-1 -1 -1 -1 -1 -1 -1 -1 -1 -1 -1 -1 -1 -1 -1 -1 -1 -1 -1 -1 -1 -1 -1 -1
-1 -1 -1 -1 -1 -1 -1 -1 -1 -1 -1 -1 -1 -1 -1 -1 -1 -1 -1 -1 -1 -1 -1 -1
-1 -1 -1 -1 -1 -1 -1 -1 -1 -1 -1 -1 -1 -1 -1 -1 -1 -1 -1 -1 -1 -1 -1 -1
-1 -1 -1 -1 -1 -1 -1 -1 -1 -1 -1 -1 -1 -1 -1 -1 -1 -1 -1 -1 -1 -1 -1 -1
-1 -1 -1 -1 -1 -1 -1 -1 -1 -1 -1 -1 -1 -1 -1 -1 -1 -1 -1 -1 -1 -1 -1 -1
-1 -1 -1 -1 -1 -1 -1 -1 -1 -1 -1 -1 -1 -1 -1 -1 -1 -1 -1 -1 -1 -1 -1 -1
-1 -1 -1 -1 -1 -1 -1 -1 -1 -1 -1 -1 -1 -1 -1 -1 -1 -1 -1 -1 -1 -1 -1 -1
-1 -1 -1 -1 -1 -1 -1 -1 -1 -1 -1 -1 -1 -1 -1 -1 -1 -1 -1 -1 -1 -1 -1 -1
-1 -1 -1 -1 -1 -1 -1 -1 -1 -1 -1 -1 -1 -1 -1 -1 -1 -1 -1 -1 -1 -1 -1 -1
-1 -1 -1 -1 -1 -1 -1 -1 -1 -1 -1 -1 -1 -1 -1 -1 -1 -1 -1 -1 -1 -1 -1 -1
-1 -1 -1 -1 -1 -1 -1 -1 -1 -1 -1 -1 -1 -1 -1 -1
$$ ##$RG_tab7= (0..255)
-1 -1 -1 -1 -1 -1 -1 -1 -1 -1 -1 -1 -1 -1 -1 -1 -1 -1 -1 -1 -1 -1 -1 -1
-1 -1 -1 -1 -1 -1 -1 -1 -1 -1 -1 -1 -1 -1 -1 -1 -1 -1 -1 -1 -1 -1 -1 -1
-1 -1 -1 -1 -1 -1 -1 -1 -1 -1 -1 -1 -1 -1 -1 -1 -1 -1 -1 -1 -1 -1 -1 -1
-1 -1 -1 -1 -1 -1 -1 -1 -1 -1 -1 -1 -1 -1 -1 -1 -1 -1 -1 -1 -1 -1 -1 -1
-1 -1 -1 -1 -1 -1 -1 -1 -1 -1 -1 -1 -1 -1 -1 -1 -1 -1 -1 -1 -1 -1 -1 -1
-1 -1 -1 -1 -1 -1 -1 -1 -1 -1 -1 -1 -1 -1 -1 -1 -1 -1 -1 -1 -1 -1 -1 -1
-1 -1 -1 -1 -1 -1 -1 -1 -1 -1 -1 -1 -1 -1 -1 -1 -1 -1 -1 -1 -1 -1 -1 -1
-1 -1 -1 -1 -1 -1 -1 -1 -1 -1 -1 -1 -1 -1 -1 -1 -1 -1 -1 -1 -1 -1 -1 -1
-1 -1 -1 -1 -1 -1 -1 -1 -1 -1 -1 -1 -1 -1 -1 -1 -1 -1 -1 -1 -1 -1 -1 -1
-1 -1 -1 -1 -1 -1 -1 -1 -1 -1 -1 -1 -1 -1 -1 -1 -1 -1 -1 -1 -1 -1 -1 -1
-1 -1 -1 -1 -1 -1 -1 -1 -1 -1 -1 -1 -1 -1 -1 -1
$$ ##$RG_tab8= (0..255)
-1 -1 -1 -1 -1 -1 -1 -1 -1 -1 -1 -1 -1 -1 -1 -1 -1 -1 -1 -1 -1 -1 -1 -1
-1 -1 -1 -1 -1 -1 -1 -1 -1 -1 -1 -1 -1 -1 -1 -1 -1 -1 -1 -1 -1 -1 -1 -1
-1 -1 -1 -1 -1 -1 -1 -1 -1 -1 -1 -1 -1 -1 -1 -1 -1 -1 -1 -1 -1 -1 -1 -1
-1 -1 -1 -1 -1 -1 -1 -1 -1 -1 -1 -1 -1 -1 -1 -1 -1 -1 -1 -1 -1 -1 -1 -1
-1 -1 -1 -1 -1 -1 -1 -1 -1 -1 -1 -1 -1 -1 -1 -1 -1 -1 -1 -1 -1 -1 -1 -1
-1 -1 -1 -1 -1 -1 -1 -1 -1 -1 -1 -1 -1 -1 -1 -1 -1 -1 -1 -1 -1 -1 -1 -1
-1 -1 -1 -1 -1 -1 -1 -1 -1 -1 -1 -1 -1 -1 -1 -1 -1 -1 -1 -1 -1 -1 -1 -1
-1 -1 -1 -1 -1 -1 -1 -1 -1 -1 -1 -1 -1 -1 -1 -1 -1 -1 -1 -1 -1 -1 -1 -1
-1 -1 -1 -1 -1 -1 -1 -1 -1 -1 -1 -1 -1 -1 -1 -1 -1 -1 -1 -1 -1 -1 -1 -1
-1 -1 -1 -1 -1 -1 -1 -1 -1 -1 -1 -1 -1 -1 -1 -1 -1 -1 -1 -1 -1 -1 -1 -1
-1 -1 -1 -1 -1 -1 -1 -1 -1 -1 -1 -1 -1 -1 -1 -1
$$ ##$RG_tabA= (0..255)
0.25 0.28 0.32 0.35 0.4 0.44 0.5 0.56 0.64 0.7 0.8 0.89 1 1.12 1.28 1.4
1.6 1.78 2 2.25 2.56 2.8 3.2 3.56 4 4.5 5 5.6 6.35 7.12 8 9 10 11.3 12.7
14.2 16 18 20.2 22.6 25.4 28.5 32 36 40.3 45.2 50.8 57 64 71.8 80.6 90.5
101 114 128 144 161 181 203 228 256 287 322 362 406 456 512 575 645 724
812 912 1030 1150 1290 1440 1620 1820 2050 -1 -1 -1 -1 -1 -1 -1 -1 -1 -1
-1 -1 -1 -1 -1 -1 -1 -1 -1 -1 -1 -1 -1 -1 -1 -1 -1 -1 -1 -1 -1 -1 -1 -1
-1 -1 -1 -1 -1 -1 -1 -1 -1 -1 -1 -1 -1 -1 -1 -1 -1 -1 -1 -1 -1 -1 -1 -1
-1 -1 -1 -1 -1 -1 -1 -1 -1 -1 -1 -1 -1 -1 -1 -1 -1 -1 -1 -1 -1 -1 -1 -1
-1 -1 -1 -1 -1 -1 -1 -1 -1 -1 -1 -1 -1 -1 -1 -1 -1 -1 -1 -1 -1 -1 -1 -1
-1 -1 -1 -1 -1 -1 -1 -1 -1 -1 -1 -1 -1 -1 -1 -1 -1 -1 -1 -1 -1 -1 -1 -1
-1 -1 -1 -1 -1 -1 -1 -1 -1 -1 -1 -1 -1 -1 -1 -1 -1 -1 -1 -1 -1 -1 -1 -1
-1 -1 -1 -1 -1 -1 -1 -1 -1 -1 -1 -1 -1 -1 -1 -1 -1 -1 -1 -1 -1 -1 -1
$$ ##$ROUT14= (0..7)
0 0 0 0 0 0 0 0
$$ ##$ROUTER= -1
$$ ##$RX22TY= <no>
$$ ##$RXFMAX= (0..7)
647.5 -1 -1 -1 -1 -1 -1 -1
$$ ##$RXFMIN= (0..7)
5 -1 -1 -1 -1 -1 -1 -1
$$ ##$RXINTLV= (0..7)
1 0 0 0 0 0 0 0
$$ ##$RXMSTY= <no>
$$ ##$SCMTY= <no>
$$ ##$SGUC1= (0..15)
33 34 17 0 0 0 0 0 0 0 0 0 0 0 0 0
$$ ##$SGUC2= (0..15)
36 256 35 0 0 0 0 0 0 0 0 0 0 0 0 0
$$ ##$SPECTR= 10
$$ ##$SY2FLAG= 0
$$ ##$TFXNUM= 0
$$ ##$TRIPLO2= 0
$$ ##$VTUTY= <tty05>
$$ ##$WBREFAM= (0..15)
100 100 100 100 100 100 100 100 100 100 100 100 100 100 100 100
$$ ##$WBREFPH= (0..15)
0 0 0 0 0 0 0 0 0 0 0 0 0 0 0 0
$$ ##$XFAC= 2
$$ ##END=
##$RELAX= 
##$BRUKER FILE PROC=peaklist.xml
$$ <?xml version="1.0" encoding="UTF-8"?>
$$ <PeakList modified="2016-12-02T15:05:25">
$$   <PeakList1D>
$$     <PeakList1DHeader creator="nes" date="2016-12-02T15:05:25" expNo="2" name="dd_nes_menthol_dmso_011216" owner="" procNo="1" source="C:/transferNMR">
$$       <PeakPickDetails>F1=72.528ppm, F2=44.336ppm, MI=1.44cm, MAXI=4.61cm, PC=1.400
$$       </PeakPickDetails>
$$     </PeakList1DHeader>
$$     <Peak1D F1="69.9654" intensity="2.63" type="0"/>
$$     <Peak1D F1="50.0396" intensity="2.67" type="0"/>
$$     <Peak1D F1="45.6785" intensity="2.49" type="0"/>
$$   </PeakList1D>
$$   <PeakList1D>
$$     <PeakList1DHeader creator="nes" date="2016-12-02T15:05:25" expNo="2" name="dd_nes_menthol_dmso_011216" owner="" procNo="1" source="C:/transferNMR">
$$       <PeakPickDetails>F1=36.241ppm, F2=14.233ppm, MI=1.39cm, MAXI=4.18cm, PC=1.400
$$       </PeakPickDetails>
$$     </PeakList1DHeader>
$$     <Peak1D F1="34.8431" intensity="2.46" type="0"/>
$$     <Peak1D F1="31.6323" intensity="2.64" type="0"/>
$$     <Peak1D F1="25.5452" intensity="2.42" type="0"/>
$$     <Peak1D F1="23.3019" intensity="2.48" type="0"/>
$$     <Peak1D F1="22.7700" intensity="2.46" type="0"/>
$$     <Peak1D F1="21.4777" intensity="2.38" type="0"/>
$$     <Peak1D F1="16.5504" intensity="2.36" type="0"/>
$$   </PeakList1D>
$$ </PeakList>
##$RELAX= 
##$BRUKER FILE PROC=peakrng
$$ P    #regions in PPM
$$ # 2016-12-02 15:05:27 +0100  nes@nmr-dd-nes
$$ # low field   high field   mi   maxi
$$   72.52838655635244  44.33553410184554  1.442  4.614  # for region 1
$$   36.24145710684194  14.23284325525913  1.388  4.182  # for region 2
##$RELAX= 
$$ Bruker specific parameters
$$ --------------------------
##$DATPATH= <C:\Bruker\TopSpin3.6.0\data\luc\nmr>
##$EXPNO= 2
##$NAME= <Displayer_2216-51-5_light>
##$PROCNO= 1
##$ACQT0= -2.33193285324994
##$AMP= (0..31)
100 100 100 100 100 100 100 100 100 100 100 100 100 100 100 100 100 100
100 100 100 100 100 100 100 100 100 100 100 100 100 100
##$AMPCOIL= (0..19)
0 0 0 0 0 0 0 0 0 0 0 0 0 0 0 0 0 0 0 0
##$ANAVPT= -1
##$AQSEQ= 0
##$AQ_mod= 3
##$AUNM= <au_zg>
##$AUTOPOS= <>
##$BF1= 150.92041
##$BF2= 600.2
##$BF3= 600.2
##$BF4= 150.930468
##$BF5= 500.13
##$BF6= 500.13
##$BF7= 500.13
##$BF8= 500.13
##$BWFAC= (0..63)
0 0 0 0 0 0 0 0 0 0 0 0 0 0 0 0 0 0 0 0 0 0 0 0 0 0 0 0 0 0 0 0 0 0 0 0
0 0 0 0 0 0 0 0 0 0 0 0 0 0 0 0 0 0 0 0 0 0 0 0 0 0 0 0
##$BYTORDA= 0
##$CAGPARS= (0..11)
0 0 0 0 0 0 0 0 0 0 0 0
##$CHEMSTR= <none>
##$CNST= (0..63)
1 1 145 1 1 1 1 1 1 1 1 1 1 1 1 1 1 1 1 1 1 1 1 1 1 1 1 1 1 1 1 1 1 1 1
1 1 1 1 1 1 1 1 1 1 1 1 1 1 1 1 1 1 1 1 1 1 1 1 1 1 1 1 1
##$CPDPRG= (0..8)
<waltz16> <> <waltz16> <> <mlev> <mlev> <mlev> <mlev> <mlev>
##$D= (0..63)
0 3 0.00345 0 0 0 0 0 0 0 0 0.03 2e-005 3e-006 0 0 0 0 0 0 0 0 0 0 0 0
0 0 0 0 0 0 0 0 0 0 0 0 0 0 0 0 0 0 0 0 0 0 0 0 0 0 0 0 0 0 0 0 0 0 0 0
0 0
##$DATE= 1480685365
##$DE= 6
##$DECBNUC= <off>
##$DECIM= 672
##$DECNUC= <off>
##$DECSTAT= 4
##$DIGMOD= 1
##$DIGTYP= 12
##$DQDMODE= 0
##$DR= 21
##$DS= 4
##$DSPFIRM= 0
##$DSPFVS= 20
##$DTYPA= 0
##$EXP= <13c_zgdc30_bbo.nes>
##$FCUCHAN= (0..9)
0 1 2 0 0 0 0 0 0 0
##$FL1= 83
##$FL2= 83
##$FL3= 83
##$FL4= 83
##$FN_INDIRECT= (0..7)
0 0 0 0 0 0 0 0
##$FOV= 20
##$FQ1LIST= <freqlist>
##$FQ2LIST= <freqlist>
##$FQ3LIST= <freqlist>
##$FQ4LIST= <freqlist>
##$FQ5LIST= <freqlist>
##$FQ6LIST= <freqlist>
##$FQ7LIST= <freqlist>
##$FQ8LIST= <freqlist>
##$FRQLO3= 1213690.06104999
##$FRQLO3N= 0
##$FS= (0..7)
83 83 83 83 83 83 83 83
##$FTLPGN= 0
##$FW= 250000
##$FnILOOP= 0
##$FnMODE= 0
##$FnTYPE= 0
##$GPNAM= (0..31)
<SINE.100> <SINE.100> <SINE.100> <SINE.100> <SINE.100> <SINE.100> <SINE.100>
<SINE.100> <SINE.100> <SINE.100> <SINE.100> <SINE.100> <SINE.100> <SINE.100>
<SINE.100> <SINE.100> <SINE.100> <SINE.100> <SINE.100> <SINE.100> <SINE.100>
<SINE.100> <SINE.100> <SINE.100> <SINE.100> <SINE.100> <SINE.100> <SINE.100>
<SINE.100> <SINE.100> <SINE.100> <SINE.100>
##$GPX= (0..31)
0 0 0 0 0 0 0 0 0 0 0 0 0 0 0 0 0 0 0 0 0 0 0 0 0 0 0 0 0 0 0 0
##$GPY= (0..31)
0 0 0 0 0 0 0 0 0 0 0 0 0 0 0 0 0 0 0 0 0 0 0 0 0 0 0 0 0 0 0 0
##$GPZ= (0..31)
0 0 0 0 0 0 0 0 0 0 0 0 0 0 0 0 0 0 0 0 0 0 0 0 0 0 0 0 0 0 0 0
##$GRDPROG= <>
##$GRPDLY= 67.9838256835938
##$HDDUTY= 20
##$HDRATE= 20
##$HGAIN= (0..3)
0 0 0 0
##$HL1= 3
##$HL2= 83
##$HL3= 83
##$HL4= 83
##$HOLDER= 0
##$HPMOD= (0..7)
0 0 0 0 0 0 0 0
##$HPPRGN= 0
##$IN= (0..63)
0.001 0.001 0.001 0.001 0.001 0.001 0.001 0.001 0.001 0.001 0.001 0.001
0.001 0.001 0.001 0.001 0.001 0.001 0.001 0.001 0.001 0.001 0.001 0.001
0.001 0.001 0.001 0.001 0.001 0.001 0.001 0.001 0.001 0.001 0.001 0.001
0.001 0.001 0.001 0.001 0.001 0.001 0.001 0.001 0.001 0.001 0.001 0.001
0.001 0.001 0.001 0.001 0.001 0.001 0.001 0.001 0.001 0.001 0.001 0.001
0.001 0.001 0.001 0.001
##$INF= (0..7)
0 0 0 0 0 0 0 0
##$INP= (0..63)
0 0 0 0 0 0 0 0 0 0 0 0 0 0 0 0 0 0 0 0 0 0 0 0 0 0 0 0 0 0 0 0 0 0 0 0
0 0 0 0 0 0 0 0 0 0 0 0 0 0 0 0 0 0 0 0 0 0 0 0 0 0 0 0
##$INSTRUM= <spect>
##$INTEGFAC= (0..63)
0 0 0 0 0 0 0 0 0 0 0 0 0 0 0 0 0 0 0 0 0 0 0 0 0 0 0 0 0 0 0 0 0 0 0 0
0 0 0 0 0 0 0 0 0 0 0 0 0 0 0 0 0 0 0 0 0 0 0 0 0 0 0 0
##$L= (0..31)
1 1 1 1 1 1 1 1 1 1 1 1 1 1 1 1 1 1 1 1 1 1 1 1 1 1 1 1 1 1 1 1
##$LFILTER= 200
##$LGAIN= 5
##$LINPSTP= 0
##$LOCKED= yes
##$LOCKFLD= 5606
##$LOCKGN= 104.146690368652
##$LOCKPOW= -29.9999942779541
##$LOCKPPM= 2.49000000953674
##$LOCNUC= <2H>
##$LOCPHAS= 95
##$LOCSHFT= yes
##$LOCSW= 0
##$LTIME= 0.25
##$MASR= 4200
##$MASRLST= <masrlst>
##$MULEXPNO= (0..15)
0 0 0 0 0 0 0 0 0 0 0 0 0 0 0 0
##$NBL= 1
##$NC= -5
##$NLOGCH= 3
##$NOVFLW= 0
##$NS= 28
##$NUC1= <13C>
##$NUC2= <1H>
##$NUC3= <off>
##$NUC4= <off>
##$NUC5= <off>
##$NUC6= <off>
##$NUC7= <off>
##$NUC8= <off>
##$NUCLEUS= <off>
##$NUSLIST= <>
##$NusAMOUNT= 0
##$NusFPNZ= no
##$NusJSP= 0
##$NusSEED= 0
##$NusSPTYPE= 0
##$NusT2= 0
##$NusTD= 0
##$O1= 14337.43895
##$O2= 3001.2
##$O3= 15093.09
##$O4= 15093.0948047971
##$O5= 0
##$O6= 0
##$O7= 0
##$O8= 0
##$OVERFLW= 0
##$P= (0..63)
11 11.1 22 8.5 17 0 0 0 0 0 0 0 0 0 0 0 1000 0 0 0 0 0 0 0 0 0 0 0 0 0
0 100 0 0 0 0 0 0 0 0 0 0 0 0 0 0 0 0 0 0 0 0 0 0 0 0 0 0 0 0 0 0 0 0
##$PACOIL= (0..15)
0 0 0 0 0 0 0 0 0 0 0 0 0 0 0 0
##$PAPS= 2
##$PARMODE= 0
##$PCPD= (0..9)
100 100 100 100 100 100 100 100 100 100
##$PEXSEL= (0..9)
1 1 1 1 1 1 1 1 1 1
##$PHCOR= (0..31)
0 0 0 0 0 0 0 0 0 0 0 0 0 0 0 0 0 0 0 0 0 0 0 0 0 0 0 0 0 0 0 0
##$PHLIST= <>
##$PHP= 2
##$PH_ref= 0
##$PL= (0..63)
120 3.4 17 120 120 120 120 120 120 120 120 120 17 17 120 120 120 120 120
120 120 120 120 120 120 120 120 120 120 120 120 120 120 120 120 120 120
120 120 120 120 120 120 120 120 120 120 120 120 120 120 120 120 120 120
120 120 120 120 120 120 120 120 120
##$PLSTEP= 0.1
##$PLSTRT= -6
##$PLW= (0..63)
-1 -1 -1 -1 -1 -1 -1 -1 -1 -1 -1 -1 -1 -1 -1 -1 -1 -1 -1 -1 -1 -1 -1 -1
-1 -1 -1 -1 -1 -1 -1 -1 -1 -1 -1 -1 -1 -1 -1 -1 -1 -1 -1 -1 -1 -1 -1 -1
-1 -1 -1 -1 -1 -1 -1 -1 -1 -1 -1 -1 -1 -1 -1 -1
##$PLWMAX= (0..7)
0 0 0 0 0 0 0 0
##$PQPHASE= 0
##$PQSCALE= 0
##$PR= 4
##$PRECHAN= (0..15)
-1 1 0 2 -1 -1 -1 -1 -1 3 -1 -1 -1 -1 -1 -1
##$PRGAIN= 0
##$PROBHD= <5 mm BBO BB-1H/D Z-GRD Z8478/0071
>
##$PROBINPUTS= (0..15)
<> <> <> <> <> <> <> <> <> <> <> <> <> <> <> <>
##$PULPROG= <zgdc30>
##$PW= 0
##$PYNM= <acqu.py>
##$ProjAngle= 0
##$QNP= 1
##$RD= 0
##$RECCHAN= (0..15)
0 1 0 0 0 0 0 0 0 0 0 0 0 0 0 0
##$RECPH= 0
##$RECPRE= (0..15)
-1 1 -1 -1 -1 -1 -1 -1 -1 -1 -1 -1 -1 -1 -1 -1
##$RECPRFX= (0..15)
-1 0 0 0 0 0 0 0 0 0 0 0 0 0 0 0
##$RECSEL= (0..15)
0 1 0 0 0 0 0 0 0 0 0 0 0 0 0 0
##$RG= 2050
##$RO= 0
##$RSEL= (0..15)
0 1 2 0 0 0 0 0 0 0 0 0 0 0 0 0
##$S= (0..7)
83 25 26 83 26 83 83 83
##$SELREC= (0..9)
0 0 0 0 0 0 0 0 0 0
##$SFO1= 150.93474743895
##$SFO2= 600.2030012
##$SFO3= 600.21509309
##$SFO4= 150.945561094805
##$SFO5= 500.13
##$SFO6= 500.13
##$SFO7= 500.13
##$SFO8= 500.13
##$SOLVENT= <DMSO>
##$SOLVOLD= <off>
##$SP= (0..63)
1 0 0 0 0 0 0 0 0 0 0 0 0 0 0 0 150 150 150 150 150 150 150 150 150 150
150 150 150 150 150 150 120 120 120 120 120 120 120 120 120 120 120 120
120 120 120 120 120 120 120 120 120 120 120 120 120 120 120 120 120 120
120 120
##$SPECTR= 0
##$SPINCNT= 0
##$SPNAM= (0..63)
<gauss> <gauss> <gauss> <gauss> <gauss> <gauss> <gauss> <gauss> <gauss>
<gauss> <gauss> <gauss> <gauss> <gauss> <gauss> <gauss> <gauss> <gauss>
<gauss> <gauss> <gauss> <gauss> <gauss> <gauss> <gauss> <gauss> <gauss>
<gauss> <gauss> <gauss> <gauss> <gauss> <> <> <> <> <> <> <> <> <> <> <>
<> <> <> <> <> <> <> <> <> <> <> <> <> <> <> <> <> <> <> <> <>
##$SPOAL= (0..63)
0.5 0.5 0.5 0.5 0.5 0.5 0.5 0.5 0.5 0.5 0.5 0.5 0.5 0.5 0.5 0.5 0.5 0.5
0.5 0.5 0.5 0.5 0.5 0.5 0.5 0.5 0.5 0.5 0.5 0.5 0.5 0.5 0.5 0.5 0.5 0.5
0.5 0.5 0.5 0.5 0.5 0.5 0.5 0.5 0.5 0.5 0.5 0.5 0.5 0.5 0.5 0.5 0.5 0.5
0.5 0.5 0.5 0.5 0.5 0.5 0.5 0.5 0.5 0.5
##$SPOFFS= (0..63)
0 0 0 0 0 0 0 0 0 0 0 0 0 0 0 0 0 0 0 0 0 0 0 0 0 0 0 0 0 0 0 0 0 0 0 0
0 0 0 0 0 0 0 0 0 0 0 0 0 0 0 0 0 0 0 0 0 0 0 0 0 0 0 0
##$SPPEX= (0..63)
0 0 0 0 0 0 0 0 0 0 0 0 0 0 0 0 0 0 0 0 0 0 0 0 0 0 0 0 0 0 0 0 0 0 0 0
0 0 0 0 0 0 0 0 0 0 0 0 0 0 0 0 0 0 0 0 0 0 0 0 0 0 0 0
##$SPW= (0..63)
0 0 0 0 0 0 0 0 0 0 0 0 0 0 0 0 0 0 0 0 0 0 0 0 0 0 0 0 0 0 0 0 0 0 0 0
0 0 0 0 0 0 0 0 0 0 0 0 0 0 0 0 0 0 0 0 0 0 0 0 0 0 0 0
##$SUBNAM= (0..9)
<""> <""> <""> <""> <""> <""> <""> <""> <""> <"">
##$SW= 197.183917334495
##$SWIBOX= (0..19)
0 1 2 0 0 0 0 0 0 0 0 0 0 0 0 0 0 0 0 0
##$SW_h= 29761.9047619048
##$SWfinal= 0
##$SigLockShift= 0
##$TD= 262144
##$TD0= 1
##$TD_INDIRECT= (0..7)
0 0 0 0 0 0 0 0
##$TDav= 0
##$TE= 298.2
##$TE1= 300
##$TE2= 300
##$TE3= 300
##$TE4= 300
##$TEG= 300
##$TE_MAGNET= 300
##$TE_PIDX= 0
##$TE_STAB= (0..9)
0 0 0 0 0 0 0 0 0 0
##$TL= (0..7)
0 120 120 120 120 120 120 120
##$TOTROT= (0..63)
0 0 0 0 0 0 0 0 0 0 0 0 0 0 0 0 0 0 0 0 0 0 0 0 0 0 0 0 0 0 0 0 0 0 0 0
0 0 0 0 0 0 0 0 0 0 0 0 0 0 0 0 0 0 0 0 0 0 0 0 0 0 0 0
##$TUBE_TYPE= <>
##$USERA1= <user>
##$USERA2= <user>
##$USERA3= <user>
##$USERA4= <user>
##$USERA5= <user>
##$V9= 5
##$VALIDCODE= 0
##$VALIST= <valist>
##$VCLIST= <CCCCCCCCCCCCCCC>
##$VDLIST= <DDDDDDDDDDDDDDD>
##$VPLIST= <PPPPPPPPPPPPPPP>
##$VTLIST= <TTTTTTTTTTTTTTT>
##$WBST= 1024
##$WBSW= 4
##$XGAIN= (0..3)
0 0 0 0
##$XL= 0
##$YL= 0
##$YMAX_a= 530515
##$YMIN_a= -468013
##$ZGOPTNS= <>
##$ZL1= 120
##$ZL2= 120
##$ZL3= 120
##$ZL4= 120
##$scaledByNS= no
##$scaledByRG= no
##$ABSF1= 193.6013
##$ABSF2= -3.601349
##$ABSG= 5
##$ABSL= 3
##$ALPHA= 0
##$AQORDER= 0
##$ASSFAC= 0
##$ASSFACI= 0
##$ASSFACX= 0
##$ASSWID= 0
##$AUNMP= <proc_no>
##$AXLEFT= 0
##$AXNAME= <>
##$AXNUC= <13C>
##$AXRIGHT= 0
##$AXTYPE= 0
##$AXUNIT= <>
##$AZFE= 0.1
##$AZFW= 0.5
##$BCFW= 0
##$BC_mod= 0
##$BYTORDP= 0
##$COROFFS= 0
##$CY= 15
##$DATMOD= 1
##$DC= 0
##$DFILT= <>
##$DTYPP= 0
##$ERETIC= no
##$F1P= 0
##$F2P= 0
##$FCOR= 0.5
##$FTSIZE= 131072
##$FT_mod= 6
##$GAMMA= 0
##$GB= 0
##$INTBC= 1
##$INTSCL= 1
##$ISEN= 30
##$LB= 2
##$LEV0= 0
##$LPBIN= 0
##$MAXI= 10000
##$MC2= 0
##$MEAN= 0
##$ME_mod= 0
##$MI= 0
##$MddCEXP= no
##$MddCT_SP= no
##$MddF180= no
##$MddLAMBDA= 0
##$MddMEMORY= 0
##$MddMERGE= 0
##$MddNCOMP= 0
##$MddNITER= 0
##$MddNOISE= 0
##$MddPHASE= 0
##$MddSEED= 0
##$MddSRSIZE= 0
##$Mdd_CsALG= 0
##$Mdd_CsLAMBDA= 0
##$Mdd_CsNITER= 0
##$Mdd_CsNORM= 0
##$Mdd_CsVE= no
##$Mdd_CsZF= 0
##$Mdd_LrLAMBDA= 0
##$Mdd_LrNITER= 0
##$Mdd_LrRANK= 0
##$Mdd_LrZF= 0
##$Mdd_mod= 0
##$NCOEF= 0
##$NC_proc= -5
##$NLEV= 6
##$NOISF1= 0
##$NOISF2= 0
##$NSP= 0
##$NTH_PI= 0
##$NZP= 0
##$OFFSET= 193.6013
##$PC= 1.4
##$PHC0= 3.631109
##$PHC1= -62.86203
##$PH_mod= 1
##$PKNL= yes
##$PPARMOD= 0
##$PPDIAG= 0
##$PPIPTYP= 0
##$PPMPNUM= 2147483647
##$PPRESOL= 1
##$PSCAL= 0
##$PSIGN= 0
##$PYNMP= <proc.py>
##$RDF1= 0
##$RDF2= 0
##$RDFWHM= 0
##$RDINT= 0
##$RDPOS= 0
##$REVERSE= no
##$SF= 150.92041
##$SI= 131072
##$SIGF1= 0
##$SIGF2= 0
##$SINO= 0
##$SIOLD= 65536
##$SPECTYP= <C13>
##$SREF_mod= 1
##$SREGLST= <1H.CDCl3>
##$SSB= 0
##$STSI= 131072
##$STSR= 0
##$SW_p= 29761.9047619048
##$SYMM= 0
##$S_DEV= 0
##$TDeff= 262144
##$TDoff= 0
##$TI= <>
##$TILT= no
##$TM1= 0
##$TM2= 0
##$TOPLEV= 0
##$USERP1= <>
##$USERP2= <>
##$USERP3= <>
##$USERP4= <>
##$USERP5= <>
##$WDW= 1
##$XDIM= 131072
##$YMAX_p= 282581592
##$YMIN_p= -2539500
##$CURPLOT= <printer>
##$CURPRIN= <$printer>
##$DFORMAT= <normdp>
##$LAYOUT= <+/layouts.ATP/1D.xwp>
##$LFORMAT= <normlp>
##$PFORMAT= <normpl>
$$ End of Bruker specific parameters
$$ ---------------------------------
##NTUPLES= NMR SPECTRUM
##VAR_NAME=  FREQUENCY,     SPECTRUM/REAL,   SPECTRUM/IMAG
##SYMBOL=    X,             R,               I
##VAR_TYPE=  INDEPENDENT,   DEPENDENT,       DEPENDENT
##VAR_FORM=  AFFN,          ASDF,            ASDF
##VAR_DIM=   131072,        131072,          131072
##UNITS=     HZ,            ARBITRARY UNITS, ARBITRARY UNITS
##FACTOR=    0.22706531343006, 1,            1
##FIRST=     29761.6776965914, 657970,       528722
##LAST=      0,             1226088,         -428867
##MIN=       0,             -2539500,        0
##MAX=       29761.6776965914, 282581592,    0
$$ Real data points
##PAGE= N=1
##DATA TABLE= (X++(R..R)), XYDATA
131071F57970Q4733P9926O5474L5392j80k6708l6270l2694l1901m7852p6383j02464
131059E69043j18493j25511j19197r0813m5733J28L7139N9859P0079P7335P6738
131048C90574N2681J3057j4414k1490k4387l6574n5794o7724o1038l9556j5500
131037A19835J889Q163M616J145N057J1768J3892J0654L415r165k4936l9894D9784
131023b4662q2625p6343o0750l8145r078J7713L0964L4287M2350N8367c6632C3334
131010H7811L8344L5065M3111M9333M1331J8541k659l328J5912M0269N9787O6409
130998D89926M9028M544n0861q7221q7168o3830m6445m9828n8943m7937j4092
130987C7173K0247L7123L8299L4577L1908K8454K0616P326r104k2316k6080k0420
130975A77803r067N195J9528K9573L3606L7392M6860N9949P0323P2444O2625M1638
130963F47869J4858j5519m9015p6616q5405p3456m9475k1045R13K446j3341k9447
130951B52767l6934m0206m8175o2268f094o5859n4367n1298n9852p1326p3212
130940c82008o1107m4386l4092l0624k8685k6718k4781j9594q293Q254K5708L8127
130928e88199M5406N0556N1747N0007N3543O1078N6475L5048J5941J7067L1779
130917a19552M0019K8815m916m8992p7355p4744n0752k2914L181K8284M7888N5463
130905a95575N0915M0560K9266J6251L171m63J0991a2062D2834O5277N8302M0018
130893B06431J8576P34J205L3362Q7360J34468J51943J36283R7426N1381J5606
130882I34775J245M579O821r630m4624q1394j01807j00074q2814o3047n6009o9113
130870C38908r2712j07171C9206c6079n1880m3956m8051m9166l7128j4009J1007
130859b69262L0395L8864K9102q47l8262n9177m5549j990N1876R9498c2644A09761
130846B28241O6814P858m1960p6648H9500g518q8052p3884n6894l3566L566N8959
130834a97389g4680I2917J70017J31139P6684L9302L4935N4091P6603R1446R5416
130823H62550Q4029N8074K5913m836k9204m1988l5796j1205J4933K5693J9853
130812I68016L160j8417l6440m4926m3084l3018k2445k1581l3298n2411p2089
130801E93467q7222r3976q7737o5231l3579j2207j6208l9935o2271C3025B967
130789B8113Q0426J10799J03531O4799J5238k1513l0988j8136j775N341O668J0648
[...]
3271h00644J26243J24045R0026M3683O790l576J0256K2373J1113j7034l7597l1946
3259d56268k823L0500M8726M6799L5452K5227J3065o380j7194J274L1621L2853
3247b17148o651o1718j01837j16673j14389j01905p3325k0033N2869J26134J80138
3236d54538K09730b2642B01237K11730J77924J23697N7701j0092o2258p9009n6300
3225E64630j1160L0694M9702L6716n613o5121j29192j84005G4636a29528j69568
3214b99096j28828r7845q1002q1065r4894j07076j11927j16529j10853p0313M760
3203a294668Q4538J43424J70244J61344J25599Q5852O6429P5220R7207J07122
3193a77689h2106B70R2774J16023J10740N7492j9430p5544q2570m9919j4006k75
3181A35555n733k3501n1192b0970q6403q4027p0847l9854J1288O6514J04260e590
3168I4029O8827L1752j0257o6983a9613j96183k20414k10911j88400j68752j46576
3157a150849j01860l1669L6816P0918O1736K6040j2799l7227m2174l2002r976
3146a223046K3147O4818J04637J25805J16597Q3097M8585L2434L2588L7144L9189
3135e15005L6319K9697K8397L9138N0220M3589J4997k4725o2909r1184j04238
3124e55704j06441j06943j00849p1822j9399L3097N9540M9684J5184k0332m0064
3113h64049l9438k2801l377O827J2308K3707L4356K7933N865j1988r523O965J7066
3100h16149O897k4921o3503q1922o2935j5136L4172O3524P8020R4266J09944J12928
3088e64815J03576Q5270N3750J3516j3650j3066K452R440L994P70K274o361k9842
3075c52692n2254n8748n4352n8925q3015j08868j07802p3869k8668M487J7404
3064i57302R756j4902m6414p3227q3342o4773j9293K9503N5983O0313O6918R3060
3052i43720J32115J66177J80612J77496a13199E7630J42324P7409k37n8512q4537
3041A34077D9739b4055p2802q7641j02621j09309j20646j40355j52774j40645
3031i50848j02663o1748m0624l9703m8345n7559o1970n2398k2355P004J495m1769
3019a471483q7722j03514q7010m2909L4315J36488K35000K98312L06329K64434
3009e17760J98819J30841O7499J0622l6662p1413r9499j27449j41930j26379r4695
2998h08006p1232n2979j9980L7196J06646J66206K04666b15709d308A57112Q0674
2987B37786K700n2443r0932b0323j23606j11551j06171j26771j58951j69578j44712
2976i61663j00038n3571o612L9864P0787P8511P4710O7293M7176N845m4669q3887
2964h66254j07526j24101j34803j28032r5747m1595K4062Q0247J06405J00078
2954a187266P6646O0467O7684Q8598R8468R1794Q9448J05679J25527J18268P1441
2943a93246P123l8674m2634p002M3165Q0783e2110E0860R7856P9710M2384j4705
2931B56105p2818G4850d7706j28035j26821j14758r4964p5617o1822n7284o0631
2920g67638o1609n4639n1704o5827r0858j12797j25176j28382j24751j10406q1985
2909a775772n0044k4412N37L6215Q6676J38071J67136J65479J40275R9651N2874
2898i63314K0941K3458N3224P6731N9840l165q1224j29799j20292n5310L2419
2887a086491J10659J71555K11387K18106a81098b4443I5591Q8167O4558M9875
2877B98191L5082Q972k2813m5328n1957l8385j373M4252O9079N7732J2477n9779
2865C06150j40769c6627k22697k04760j68403j26941p8066j8638M0331P7299Q0102
2854f58400N7318L1878K4868L6792M6570L9121K1386P015m24k221M468J0823o883
2841c87689m8844q1766q2004n8691l1425m554K5534N0321N6201M5755L6761M3654
2829d36747O3343P8979P4711M3688p856n9791r1619r6895q2718o0614l6311m790
2817f16620M0647R1782J24829J26535J09236c0810D6438M5578j3229i789j50024
2806a59813j67439j32530o5923M275O5995J11359J23509R5016M2075r763m4070
2795a37309n4358m5014l7089m8415p2038r5799j17347j28944j13862o6123r93
2784i17291N7817R6958J17759J26361J32984J48464f5653A18376J67349J21767
2774D07492O3564J1011k4443m7439o4678o6822m1217J2631Q4039J53019J91995
2763F79152J79188J16317L2553l3628o5073p6814r2834j18938j44265j57150j45543
2752A72965G1761l5266K7030O7267P6835N1675Rn6397r4796G050g0262m0280j860
2739a12402L9154E923J05191J06490Q7313O9224O4538N9597L4905j7497r0253
2728D25431j64918C7863b11471k42053k13671j80958j57967j54557j65505j69379
2718a495561j43665q0799O684R2885J50217J63530J35162P5862m48p5970j31381
2707a303484j49720j20642m8058M4145J26843J77447J83580J56030J23347J03883
2697g06629R5614R0858Q9344R2306R4983R2793g0748b6072j6766q3153j25112
2686b51103j31083j04606n8908j2084K2616L9823M4069M0708K4751J938o472M12
2674c89939r05k8810q1558j33392j48634j14883n4626J967M4053P5246R8815J16126
2662f16540J28016J30226J10846O7579K1309k981kJ5738K3422R427k5389o7233
2650b05582j03504j31329j46712j39246j04915n7835j7774J0481L3005N5041P6998
2639g31372R2426R3399P9107N6707L8740L6169M6801N0741L6007K0716K5503M8058
2627a06998c3412E2964P8415O2729N9623O8515O6671L4321k2203o9119p0142k2817
2615B38957L2809N1816K6431j5390m5867o6175r8767b7977j98284k00891j53220
2604e80372q5187k3171L7084J04124J62095J86410b6296A14778J12221Q1786L0003
2593C38788m4960j18862A0892a59726j45021r9971n3305j9343J956J5144J8677
2582d41589J3962J1221J5816K4298L3066L6118K8520J5464N281l925j6465k8996
2570c07229l8322m4625m5285l7861k8712k5856k8962l0634j8933J2734N1566P4773
2558d67346P3779N7442L7894K4384J6763L824j7730l5521l8178k9345k2320k8603
2546d24957n2375q5218j14188j33427j41892j38984j21241q7545m6669r502K9228
2535a326770Q4033J53400K21217K74089b91245F776K54958J75537O9801l7191
2525D69881j10489j31025j03281m4605J5250M7101M4601K1959o358k8013l3716
2514A41305k8371k5931l3864F308d9765n7277m5562j9967R044K8108L1526K3329
2502h0564J5939K1734d109D9600N3830L1165p674m2382B6439c6023q0314j26862
2490b43199j87172k25343k14948j60422r1728m1034k3929l7629n9464n3114o910
2479a344892M7945P7098P5282N3724K4266l22j0029m91K6205N7224P5262P1608
2467h47120N0466J9816j3034l3552k8848n818J3036R090j9810n3115o0968l6513
2455a006370l112J2311O851p327k7874o1813j04592j34124j30769r0066j9185
2444a566070O4549J38795J82899J79277J27298N3801o404l1870j6268K8828P5518
2433g69647R9659R2939N2059k4926j28439k27664k80768k70491k15738j44761
2423a817777p3793n072N8964J03626J17851J09441R3845P9418P1772P7460Q5298
2412a098967O8534K2835k0442k6046J1026O3733J00186J09480J00871Q7703P7418
2401e03669P1588O7645O0779M9471L9058L6041L9704M0132K6461j336l1686n1792
2389a57604n8407n5718m6908l8051l5963l2237p611M0857R0861J15856g4066A7912
2376I2550O0674L8711k436n4229C9571g9904j25405j06668o2815j0822K4642L3809
2364c27163K9227K4337J4085j1121m3714o7742p9128q2760p6341n3439j9060R718
2352f83101J6239k951l3003n2329n2025m2376l0004N55N4061J02831J20940J09532
2340d91631Q2223M6064N074k8767m2334l4515j6474k348k57j0993l1473n8446
2328e83877q9068j15293j22258r6509m2882P522K4294R095j1183j4182M963M1771
2316i87607Q8268J33038J64693J82685J95142b2413A65526J42025O6645r147m7521
2305C17528l7901n519J4337K937l5337p8922G4399a6692m2605K5724E2423J21911
2293A74334J36309J34958J14326O9595J0930l5883m7089j9638K1957M4099L7662
2282F41560J5329j7562o1823j08517j47520A43840e1749j91594j60344j06913
2272e10600m2572J9164O4647Q3319P5125M8137J4563j7199m9172p7743q9469q0165
2260e61965o2293m8257l7818k7034j3367O754L2269N2501O2691P5047R5740J11210
2248c14522J08503R1195d1735B6978Q1665R9773J09191J01418O8858J2443n0479
2237D49847r6664j14071j00941n8221m08L7240K5179l0698A4294a36246j94502
2226c30748k31778k48455k30154j81813j22707o5307n562O2284J25825J64650
2216a063765J72698J56850J20883O8124J9244L17J3925L5907M4908M7318N5624
2205c27967N8920L6659j2971p2111j26216j65611j73903j42720q3177j5357M0360
2194i84094P0705P6275O7823N6828M7802L3684O232k7462n0702n4949l9982p626
2182h05466L7515Q6263J25630J48560J58743i2731D1406R9977O9754M9651L2559
2171B93347Q115k5063n5444p1124p0320B4293g334j2637p636j2784j7384j3466
2159g1241k721k166l1032q3745j31917j56001j55807j31648q1071j7872L3902
2148h31319O1590O6059O1735P0982R9593J22635J08195N1542k0102o9188p5486
2137c53764n3463m4063q0637j58808k41883k92227k97857k70262k18618j40208
2127b151790l2430R2992K01199K54232K43921J92318J29745Q2763O2619N6815
2117h67616M3939J6282j6621m0131m3211k2652J2090M1643N6759O0371M7306J3497
2105f98344j9575k5028m646J9689L3676L6126K9617J9095J2787J5732K5392L6419
2093e19060M6841N7167O5162O5428N8823N4487N2733M2047J5348k5402p0065j00991
2081b57482j10096j07501j03638r3683p3134n2792l8750j5223L1678Q2515J00535
2070f37571P2862J7360m2964r4334j26733j29511r2504k3517M4417P9751P8561
2059h54183N9959L9141J6079r178k8827l3329j8872R725M2550O9930Q6524R1388
2047e29093Q3382O4791M9027M6168M9771M9906M0563J6682j6496l7733k4337K2672
2035a84697P4684d840A02193Q3012M0913p894n0308o6057m4519r922O983J5642
2023G0043M7971J09261J69801J96114J79812J39585R8783O1152J5235m0181r0699
2012I56877j23406j37566j43687j50388j53972A03798f966n5387j220J8409j3046
2001e8210q2093j57145k06029k08580j65376r7996l9387j0216o666j4731k4074
1990a070503k8708k8199k8290l1121k4365R075O4462J08253J10953Q5962P5569
1979g56912R7952J35354J64520J68217e7892F019g155p6299j21953j47962j44359
1968d97728j17433r5073q8355p4421k5335O3621J63054K25485K19757g0032H509
1956C1618l904A3386D56N723M2358P9907R5334Q0471M1701n626m2985o4612p9155
1943A53572F1385d1036j09775j11510j00537p7908o0743o5536r3132j34458j76057
1932i70692k00373j90552j39649o0033J9720P0704Q4833P9856P9111Q8112Q9252
1921a049711O2289N696o0074j01443r7122n9501j9067M222K153k8336p3896j03289
1909a518079r0062l1688M7868J06175J11486P3167L0237J5725L9619R0674J38094
1898i86784J49568J17004N4949j5376p2230r9184r7329q3308o0432j1457O5008
1887a039571J37307J71082J56586J06699M3773j3585n5581q2732j04363j24867
1877h05252j34439j17829p4445k7997j875O982J2616J4612Q045j527p044r147
1865a137300j5846l6928p1324j03651j14912r4037m9475r396J859j3994m1106
1854a686110p0385j01981j37267j65035j62845j21490n0802K8922R4012J38594
1844b234387J77393K15155K40083K42291K20271J79214J28347Q2784O3699P8178
1834f06972J02436J05134Q4233O2460M9488L8622L1857L7992d1939A0151P104
1823A7255f6072j75889k17630j92610j24766n4149j0552N875J6790L9610O7592
1812g11801P3866M2956o527l7506l1007k371K0851K6758J6646q144m5482q5184
1800g46945j03969q0298k2724L0908N0136L3576l592m2228o1828n3277k4409Q275
1788a016375K9020L7882M4565N2054O1451P5682R2746J04920J06041R3283O1367
1777b57364J1477l5626n8064n2071k4431J5379N2368P0565O2007K6504k7652p8168
1765b95076r5061o8344k1771J4127K7608K1676K773k0466l7595m5178m8607n4182
1753f20096o3423o9995o3587m1825j5361l150j4504l6494n2713n9426n9756n4839
1741a155169m2203k1342O51K0096M6909Q6324J24717J49334J57910J46097J15055
1730c71621Q2150O1343M0760L149l9452n6954m0931j1874J0066K2843K8965K6277
1718b45279J8309J3711J2684J0524O522L255N628J4751K7455L6232K6540p477
1706g7145n4934r7937j16684r6711m0046K9694Q3192J13047a24805B8689J69900
1695A98589J61556J15100L9644m3248j10100j42512H2995a8134n3863q365L0737
1684d9625A6233R5141J08513R7244O6812K7599j5512n5538q1281q6013p5897C1398
1671c0020m9634j8141K1528b9487B6860O9033R3999J14911J05399N4867k3520
1660D41549j00337j39971G7676G201a2736b730B3617L1110J5142k4797c4708j29979
1648a64687j58985j71725j82670j95124j95793j62483r0487n673O1099R8839J14227
1637a053462J21315J29619J35366J26219R4019N0903K2600J9120K7977K9502O884
1626b89938m1826r9487j43650j55437j24851o5485j3467O450L355N75Q855K7917
1614h86989N5421Q2222R7273J02036R9615P9700M1376N656j1119j4507k0569l5065
1602d04950m7169m3536k1919J1533N3586J01822J43299d8551I7806J28475J20308
1591C46589J10697Q2463L9707M988j0695j5555k1045k9070k9722j8390o405m929
1579D48633j5158l4476n5554o9025p4305p6857D3317c8671p1456l2853L0552b2004
1566I7338J17248R8728O6857J7421m2247r4503A27887c6603j87532j86295j50126
1555e60556r2148l9818o763J8658N1535Q4376Q9914N1524j4051o9022q2356n2118
1543f20825o877J7902O236k6696m6618l6135j7213k3125n6758r1821j04359r1876
1531a098165o8167m8739l6864k3994m126J4345J4761n610l1674m8005m9452l9901
1519a425591k7168j5552L25K6904N7963Q2356J01981J27423J61884J95759K09238
1508e04478J84178J18083K7044o2050j25750j57567j60533j29734o4387P745N2963
1497h14486O6576O0854M2284J8334N78j6360n1122j04234j54113j78595j73401
1486a303685j52683j24679q0911k0966L6396P1309P8870O8395N1501L5541K0281
1475a320631j357k3917k7952j1869K822M612j935j5135l5391n5487o3822n4681
1463a604743l5574j9443q562P376M0247R6279J64227K10839K08937J64481J11652
1452f64284P9946O5630M7973K6139J2681N669l365j3225k1073k9004l6778m0434
1440e70125l5930k3527j1687j0246k2461m4751o9952q8547r1448p5669n1623m0009
1428a135975m6485m9935l1519J596L3868O1066Q2544R4805R9685J02728J05919
1417f81703J10827J21471J41207a41062D2691J72333J26887N4523l0464j10595
1407B55375H8040a01603j81883j53103j10037o5683l1678j154M0891R3564J40806
1396c69880J67633c4444A11244J15071Q7136N9124K2347j9745n0839n8955m9875
1385B15508l9720l7416m0308l7820k4029q914r096a1703n8739p1930n2242p374
1373b01988L2552M4396K9996P55l2545m8695k7224K8073g8081G8414J93310K04475
1361D76199J89895J45717P6555K818n1374p5295q2216r4388j18107j45290A54656
1349c8711k13280k15932j86583j25893n8023j2982N21j218j137r88r193k4360
1337h87779m2685o0692o6484m9162j4563K2601N6746Q5602J04354J09394R7377
1326f45291O8726L5035J3772J4086L0496M7426N4717N6243N9734O2744N4391K7429
1314a20492k0244q7897j64539k23286k36827k02300j45949j01879q3888p5709
1304a463010n1836o566M4125Q1454R5281Q6350O3299L9124K7232L0102L4561K8788
1292i91096K1154K9629N6073Q4522R4168O8328J0375n4466j00909j13352q7738
1281i83312l9024L723K5040L1577K9914K5294K6712L6200N1376O9655Q2927Q3424
1269e56494P1527N4060L7906J5249l2368j01325j59594j79598j57552j04244m1179
1258a153612O463K2063J563m4230q9389j04248q2656m7190k2296j6380k4223l7291
1246a591426m8156m5539k1288J3587L7294M0952K9698J2989K738L531J2893L7122
1234a515605Q3692J36269J56989J25173O2528J1095n459M577J6381J2358p017
1223i19019k7554l6349l5601l3987k8405l985M0927Q1253R2627P6778N1067L2024
1211g10224K9925L8384L4834J1165j3977k3092j2505J7522N8942R0849R4646P5231
1199c08300N6627N3436N8390N9946b7344B786c553l9277n3407n6051o2818p0336
1187b85442n6360j2761L1071L4468j2993q1081j26853j31677j03890o0016j7242
1176h22776N729l872l6755o6153p4137n9693k4076K9835Q5836J25242J42752J43000
1164e55068J30290J05415P1032L7721J4895K745j493L18P01j2474l9383o3708
1152c09009p1653o6813o3372o7025o7181n2030k0908J5770M1338M4823L1548J8393
1140e66119J5272J8312K3818L7294O2184R3554J23526d9237I3871J21116Q4896
1129B99883M6383J1197k1934n5808q8190H3073b2696q1863m6868j3597r50k3035
1117a89009o9405j04796r7909n1542j323J5894o625l7079l5143Q336P2784J29951
1105c65866J53958h1509a2129N057k9948l1181j7511o720n694j7292m0952o6006
1093b22376p9852p7602o1263m1877l1642k8820k0865K324L9255P6213R7088R2982
1081b56435O9388M4782L6988N1079B4431J01795J07725R9511Q4107N9926K1896
1070D99391k7341p2302r4358q8687o9847n7740B9345d3678r2306j07215j03249
1059c46448p3676k5467K7149O8233P9549N0469p386o9201j20047j56571j73858
1048g47254j65681j30678p4904j2428L9513O8614P6382P9868R0548R5003O9148
1037f11869J2525m0461n2801k5110J1822L8371N5626O6285O7765N3848K1397j9429
1025d22031m6173m1133o473L7971P0249Q3678Q4061P4751N7805L7036J1667k1131
1013g9723n7623q9437j08523j06170p6366k1250M8149J15952J64394b8153A45575
1001B96281J22945Q8576M1010j7202p4211j13331j18304q9071m8505k0941j2696
990E4551j6246A9111C573a0835k6010m2586m6595l4636k0948j8195k5292l2923
978b58020k8219o724J3757J1430p490j9730k1352k8097m7748p4986j05724j34121
966g07024j45390j28899r1900m8774k719M8072R4024J21053J30742J39295J53461
955d38059J56545J28534P3105J9492M8K0639A8495Q6433R3702Q1013N4465J9888
943C53996j5338m0237n4335p0671G9671c2856j14800r8851p3409m8765k8578j1000
931d08259M001R113n768m1751q5366j18202j30055j16683p8871k8628J8198N6549
919i25722Q7406J02442R2780O5378L6129J7944J8672L7971O1419O8835N0936J2417
907b73393l3139p2328r8193j06007q9058m8211K93L4522M1479J9051k4787p0739
895g20510j00409j10609j10408j04523q8582o3144l7193j4819Q784L5379O0282
884a245752P7041Q0816P4861O4132M8088K7739O846j4737m0894o3295n9088k2330
872a066573K1431M3894M7888N9786Q6069J04530J02472R1609Q5146Q0347O8606
861b74795N7368O3923f6266D0011J05315Q5382N0590L193m2406o2363m6865j1096
849A21761J7772K1467M675q383J791L1818O3117P8305O8046L0363k9778r6750
837C04204j48416a8430j79382j69156j42646j03090o4789m0494k4081k167K0475
826g23760K9455K7766L4817N7529Q0476Q6564P3500N1192L4717L4225M3520M5452
814a24547L1758J0819n012j5046k8839n3076q3695j06338j07748q9404o3045l7919
802f72092k0819j5591j9289k6836l4708l9149l7128l0228k1139r604P164K8097
790h91322M1057L6677K3868K4080N1820R7885J36831J46223J17664O0538R36l4116
778a87859l7860k0304P850L8871O5548e5916I932L6163N497k0664a1466n7405
766f8871o6915p3705q0256r0845j08244j32524j58205j74405j73198j50450j00923
755a378541k5974N7025J22679J54011J54779J43316J31764J15360Q3716L6870
745d04995j5196o1754r5575j11236j01022o3150j2045K9768N1633N9841O2263
734f61468N9863N4284M9794M5163L4302J7073L961q20r049k9762m9300m3435p210
721e36604M1090P9426R4011P9132L8470j0438m7000o5594p2721p5971q0947q3127
709f40273o4543j3259N9822J28193J67856J69518e1194E0088N9963J5913l4286
698I1678E785a23924j52876j44636j10230o9021l7555j6363M432K7996M8491N8039
686e15647M9410K2258j4950m8742o5715o4233n4532m4229l3634j7889R436M6640
674g31827P9999R5233R3296Q7255Q3536P4972N3751K2667n793j4773P164N4644
662i9876B246J19389R6284N0506J1173n145m383o710k8530o5602G3106b9395q6743
649a16138o2049l6156j1166J0221K9412N0032O7319G392P7701O8954L7761j8004
637A73804q0102b9347j36926j28133j02459o2140j7082J3690J6733j868k2307
626d69839k9838k5395j5950j957J4762K1551R107j5106l7925n1311n2983m7231
614g02115l8528k5091j981L0929O4896R3159J14708J23659J14310R5691d7807
602B9503P0131N6657M6686M5747M3475K9955R825o049j3546k1743m3451p6552
590A70638F3503f0873j24038j08644q8802p8151q2032r1779r3488p5265l0354
579h33426L2602Q8624J11464Q7700K5513m8170j04993j30324j27821j09675q0994
568a089500m2867q667L568l572p874N636L0647N0820N6658N1437M6630N1966O7513
555g87605Q2123Q3678O8242L8509J862l2709n4154n2693l1330R60M3534R2377
543e47206J31882J48515a27237a7310D8038J2968B8250b5832m7339k9954k1290
532a24415j7543k07L4402c7266E1738P9332M5034N73l9725o7650a4369r4888j07438
519b16695j21190j27054j15145q5026m5155p236J8113K2531L030k8107m7524m4441
507g93899k6740q666M71M903J4541K8994L8973L4101J0237k0768l9698m3420m1738
494h42709l5097j9133p5J2794K3783M6155Q1978J15876J29626J20035J01177R1216
482a74374g8468B3244Q9328N8191K9211J7449J2685l157k8842m5956m7035m7273
470E7845c222p9762q1106n5280j8587Q55q444l7077p7913j30284j78591j95538
458h64949j68061j06544l5582K3156O2844Q2968P6562L3885m1983j25863j80347
447a243914j75193j06347m328Q5071J31189J26689Q7081M2529J1335q701j8540
436a073129p060L1722Q2701J16924J15109Q6194N8894N2396O0348O5595O3029
425c47277O3552P8857a00780A8305J06500O9426K9312K356j3060k7609n0529E6932
412c7401r5011q8443q3057q2615q8941r5863r4431r0339r8707j18010j28086j14040
400a214944p9754m4121k6834l3514n2510o5829o1856l7727J529M8183R7716J42958
388a326703J72291J78158J61460J31144R7746O7132M0853J6247p243k8823n1599
377e49337o8475o1734k5260K6766P0625R4027J04161J07813R6765O3591J9133
366a21925k1411n5392q2718r8175r9694r1547p8391o0320l6734j3161L781J3779
354g41908K1865L4289N4111P9228J04163J21379J21232R7869d8931K3180O903
343a8848f801B6996O7278J00608J15222R9193N4761m742n8869q8098q8187o6681
331A57481k6187L3132R8243J48419J73108J72427J47573J00969M1186j6015n5197
320I75139p3771q1347q7079r2667r6969r8877r4506q1894o6890n4036m0188k0429
308H6486N795L1875N3177P6173J09552J49697J79354J80521J47563Q7201J1675
297A119069n8251j00073j12842j16419j24053j27393j10627p1024k1992J7246
287B93641L7998M2911L2874O824l1961p1503r2514q5158n4851r867L5293N7459
275A61146M5780P466m6435F7059f6446j27454q5970k7551K8994O9252Q1622f0975
262a7241A4387L0766L5736M6020N8819O1809M0193q359o4441j01199E343h6656
249a48634k9933n050J5212M1043e4966D0228R7974Q4827O9219O0806O2543P1808
237D87405Q0310P7477N6024J7739k7142o5107q4637q2249o4060l9533j7295l656
225C35276j762r616j4975m677J6910L0238J6495l0680r8658G7550a15120j80936
213b96056j33984q0289m1560j4686Q482K6735L5654L4524L5243N4791R0780J20628
201a59738c0400I5155J23936J20067R5800M8655l207m3284o6045p5337q0893q6546
189A28301D6390e528M81D1734N8271L3032p426l7342l9740j3933K3227M9560N2877
176A60260L6899J7495P049J884o569j8291l1215m5319n6478A0551b5624q484J5720
163a8388A2371L2007K1377J5763K8342M6985M6793J8244k3636n6654F4020c4574
150a53683j21539r4106m5789l210M747l2299r7102j55745j80067j58971r5392
139a133156n464Q4390J48534J74234J64929J37253J11451R6671Q8914e3526B963
127B1998b480n7969p1134o3265l8580o123K1692L5671L0771P533k5260n5085p0640
114b94869o6553m4198q487L1056O0317O6339M7839J5325k0430n0263o5167o2741
102c91832n0297l4792j8380q178j5157l7018n6341o0411m8895k4766J0925N6899
90f78243J05454J38314J37156J00861M6739k035k8925k8391m442L1344O3362c8634
77D2968P1869N0798K0574r668l1543m4194D9970d657n7855n8338n0460l5902l0528
64b37740m6853p1530p6642n2588k2451j3303k5272l8544l2489J860N5638J08267
52d51647J39931J39205f5954a3107o363n5184q5781j00720j03400r9572j00837
41e64964j09978j12872r5455n7825j1167L1393N9176O8113O6995O5918O6047O3739
29e30880N8292N4868N4696N1818M4440L5314K6719K1587K2625K9002L3340K5868
17g2311L976k4756m7325n2294l5289j599L5811O4004e4584A4169N0572K3546j8789
4F9498g647j30257j51814j39149
0d28867
##END NTUPLES=NMR SPECTRUM
##END=
