##TITLE=13c deptQgpsp TBI ns 4k
##JCAMPDX= 6.0         $$ Bruker NMR JCAMP-DX V2.0
##DATA TYPE= NMR SPECTRUM
##DATA CLASS= XYDATA
##ORIGIN= Bruker BioSpin GmbH
##OWNER= ocmess
##LONG DATE= 2009/06/26 05:37:37+0000
$$ 1.90.2.4 TopSpin 3.6.0
$$ 2021-04-25 07:15:01.209 +0200  nes@nmr-nesnote2
$$ Compression mode = diff/dup
##.OBSERVE FREQUENCY= 150.93550309
##.OBSERVE NUCLEUS= ^13C
##.ACQUISITION MODE= SIMULTANEOUS (DQD)
##.ACQUISITION SCHEME= undefined
##.AVERAGES= 744
##.DIGITISER RES= 21
##SPECTROMETER/DATA SYSTEM= spect
##.PULSE SEQUENCE= deptqgpsp
##.SOLVENT NAME= DMSO
##.SHIFT REFERENCE= INTERNAL, DMSO, 1, 219.4662
##AUDIT TRAIL= $$ (NUMBER, WHEN, WHO, WHERE, PROCESS, VERSION, WHAT)
$$ ##TITLE= Audit trail, TopSpin 3.6.0
$$ ##JCAMPDX= 5.01
$$ ##ORIGIN= Bruker BioSpin GmbH
$$ ##OWNER= nes
$$ $$ C:\Bruker\TopSpin3.6.0\data\luc\nmr/Displayer_57946-61-9_kombi/6/pdata/1/auditp.txt
$$ ##AUDIT TRAIL=  $$ (NUMBER, WHEN, WHO, WHERE, PROCESS, VERSION, WHAT)
(   1,<2009-06-26 07:39:59.074 +0200>,<ocmess>,<av600>,<go>,<TOPSPIN 2.1>,
      <created by zg
	started at 2009-06-26 06:16:00.205 +0200,
	POWCHK disabled, PULCHK disabled,
       terminated by command 'halt'
       configuration hash MD5:
       4D EB 05 20 4E C2 27 D5 8C 2B 1E 6A A2 4F 3F 0E
       data hash MD5: 256K
       1C BC AB 00 27 96 03 01 F9 91 82 6F CE 42 C7 16>)
(   2,<2021-04-25 07:11:41.862 +0200>,<nes>,<nmr-nesnote2>,<proc1d>,<TopSpin 3.6.0>,
      <Start of raw data processing
       efp LB = 3 FT_mod = 6 PKNL = 1 PHC0 = 443.9576 PHC1 = -203.3973 SI = 64K 
       data hash MD5: 64K
       33 5C 93 E3 53 02 92 DE 26 A2 25 CC BF 8D 35 3A>)
(   3,<2021-04-25 07:11:44.528 +0200>,<nes>,<nmr-nesnote2>,<proc1d>,<TopSpin 3.6.0>,
      <abs n ABSG = 5 
       data hash MD5: 64K
       68 75 05 FF 31 90 D5 2D CE 5C 09 AF 15 8F 06 53>)
$$ ##END=
$$ 
$$ $$ hash MD5
$$ $$ 33 41 DD 95 C1 67 FE B6 03 EB 36 1C A2 DD 3F AA
##$RELAX= 
##$BRUKER FILE EXP=cpdprg2
$$ ;$OWNER=Bruker
$$ 1 pcpd*3:180
$$   pcpd*4:0
$$   pcpd*2:180
$$   pcpd*3:0
$$   pcpd  :180
$$   pcpd*2:0
$$   pcpd*4:180
$$   pcpd*2:0
$$   pcpd*3:180
$$ 2 pcpd*3:0
$$   pcpd*4:180
$$   pcpd*2:0
$$   pcpd*3:180
$$   pcpd  :0
$$   pcpd*2:180
$$   pcpd*4:0
$$   pcpd*2:180
$$   pcpd*3:0
$$   lo to 2 times 2
$$ 3 pcpd*3:180
$$   pcpd*4:0
$$   pcpd*2:180
$$   pcpd*3:0
$$   pcpd  :180
$$   pcpd*2:0
$$   pcpd*4:180
$$   pcpd*2:0
$$   pcpd*3:180
$$   jump to 1
##$RELAX= 
##$BRUKER FILE EXP=format.temp
$$ EDIT_PAR COMMAND FILE
$$ 
$$ DI_MODE         LONG
$$ ED_ENTRY        ACQU
$$ ORDER           FILE
$$ 
$$ 
$$ HEADER		"F2 - Acquisition Parameters"
$$ T_NAME		Date_
$$ 		TYPE	R64
$$ 		CLASS	ACQU
$$ 		SUBRANGE 0.0 50000000
$$ 		REL	"Date_=itodate(DATE)"
$$ 		INV_REL	"DATE=datetoi(Date_,DATE)"
$$ 		FORMAT	"%14.0f"
$$ 		TEXT	" "
$$ END
$$ T_NAME		Time
$$ 		TYPE	R32
$$ 		CLASS	ACQU
$$ 		SUBRANGE 0.0 1000000
$$ 		REL	"Time=itotime(DATE)"
$$ 		INV_REL	"DATE=timetoi(Time,DATE)"
$$ 		FORMAT	"%14.2f"
$$ 		TEXT	" "
$$ END
$$ NAME		INSTRUM
$$ 		TEXT	" "
$$ END
$$ NAME		PROBHD
$$ 		FORMAT	"%14.14s"
$$ 		TEXT	" "
$$ END
$$ NAME		PULPROG
$$ 		TEXT	" "
$$ END
$$ NAME		TD
$$ 		TEXT	" "
$$ END
$$ NAME		SOLVENT
$$ 		TEXT	" "
$$ END
$$ NAME		NS
$$ 		TEXT	" "
$$ END
$$ NAME		DS
$$ 		TEXT	" "
$$ END
$$ T_NAME		SWH
$$ 		TYPE	R32
$$ 		CLASS	ACQU
$$ 		SUBRANGE 0.0 1e8
$$ 		REL	"SWH=SW*SFO1"
$$ 		INV_REL "SW=SWH/SFO1"
$$ 		UNIT	"Hz"
$$ 		FORMAT	"%14.3f Hz"
$$ 		TEXT	" "
$$ END
$$ T_NAME          FIDRES
$$                 TYPE    R32
$$                 CLASS   ACQU
$$                 SUBRANGE 0.0 100000
$$                 REL     "FIDRES=SW*SFO1/TD"
$$                 INV_REL "TD = nextpow(SW*SFO1/FIDRES)"
$$ 		UNIT	"Hz"
$$ 		FORMAT	"%14.6f Hz"
$$ 		TEXT	" "
$$ END
$$ T_NAME          AQ
$$ 		TYPE	R32
$$ 		CLASS	ACQU
$$ 		SUBRANGE 0.0 1000
$$ 		REL	"AQ=aqcalc(SW,SFO1,TD,DIGTYP)"
$$ 		INV_REL	"TD=tdcalc(SW,SFO1,1.0e6*AQ,DIGTYP)"
$$ 		UNIT	"sec"
$$ 		FORMAT	"%14.7f sec"
$$ 		TEXT	" "
$$ END
$$ NAME		RG
$$ 		TEXT	" "
$$ END
$$ T_NAME          DW
$$ 		TYPE	R32
$$ 		CLASS	ACQU
$$ 		SUBRANGE 0.0 1000000
$$ 		REL	"DW=1/(2*SW*SFO1)"
$$ 		INV_REL	"SW=1000000/(2*(0.005+DW)*SFO1)"
$$ 		UNIT	"usec"
$$ 		FORMAT	"%14.3lf usec"
$$ 		TEXT	" "
$$ END
$$ NAME		DE
$$ 		FORMAT	"%14.2f usec"
$$ 		TEXT	" "
$$ END
$$ NAME		TE
$$ 		FORMAT	"%14.1f K"
$$ 		TEXT	" "
$$ END
$$ T_NAME		CNST2
$$ 		TYPE	R32
$$ 		CLASS	ACQU
$$ 		SUBRANGE -1e38 1e38
$$ 		REL	"CNST2=CNST[2]"
$$ 		INV_REL	"CNST[2]=CNST2"
$$ 		FORMAT	"%14.7f"
$$ 		TEXT	" "
$$ END
$$ T_NAME		CNST12
$$ 		TYPE	R32
$$ 		CLASS	ACQU
$$ 		SUBRANGE -1e38 1e38
$$ 		REL	"CNST12=CNST[12]"
$$ 		INV_REL	"CNST[12]=CNST12"
$$ 		FORMAT	"%14.7f"
$$ 		TEXT	" "
$$ END
$$ T_NAME		D1
$$ 		TYPE	R32
$$ 		CLASS	ACQU
$$ 		SUBRANGE 0.0 1e38
$$ 		REL	"D1=D[1]"
$$ 		INV_REL	"D[1]=D1"
$$ 		UNIT	"sec"
$$ 		FORMAT	"%14.8f sec"
$$ 		TEXT	" "
$$ END
$$ T_NAME		D2
$$ 		TYPE	R32
$$ 		CLASS	ACQU
$$ 		SUBRANGE 0.0 1e38
$$ 		REL	"D2=D[2]"
$$ 		INV_REL	"D[2]=D2"
$$ 		UNIT	"sec"
$$ 		FORMAT	"%14.8f sec"
$$ 		TEXT	" "
$$ END
$$ T_NAME		D12
$$ 		TYPE	R32
$$ 		CLASS	ACQU
$$ 		SUBRANGE 0.0 1e38
$$ 		REL	"D12=D[12]"
$$ 		INV_REL	"D[12]=D12"
$$ 		UNIT	"sec"
$$ 		FORMAT	"%14.8f sec"
$$ 		TEXT	" "
$$ END
$$ T_NAME		D16
$$ 		TYPE	R32
$$ 		CLASS	ACQU
$$ 		SUBRANGE 0.0 1e38
$$ 		REL	"D16=D[16]"
$$ 		INV_REL	"D[16]=D16"
$$ 		UNIT	"sec"
$$ 		FORMAT	"%14.8f sec"
$$ 		TEXT	" "
$$ END
$$ NAME		TD0
$$ 		TEXT	" "
$$ END
$$ HEADER		"======== CHANNEL f1 ========"
$$ NAME		NUC1
$$ 		NONEDIT
$$ 		TEXT	" "
$$ END
$$ T_NAME		P1
$$ 		TYPE	R32
$$ 		CLASS	ACQU
$$ 		SUBRANGE 0.0 1.0e10
$$ 		REL	"P1=P[1]"
$$ 		INV_REL	"P[1]=P1"
$$ 		UNIT	"usec"
$$ 		FORMAT	"%14.2f usec"
$$ 		TEXT	" "
$$ END
$$ T_NAME		P12
$$ 		TYPE	R32
$$ 		CLASS	ACQU
$$ 		SUBRANGE 0.0 1.0e10
$$ 		REL	"P12=P[12]"
$$ 		INV_REL	"P[12]=P12"
$$ 		UNIT	"usec"
$$ 		FORMAT	"%14.2f usec"
$$ 		TEXT	" "
$$ END
$$ T_NAME		PL0
$$ 		TYPE	R32
$$ 		CLASS	ACQU
$$ 		SUBRANGE -6.0 1e38
$$ 		REL	"PL0=PL[0]"
$$ 		INV_REL	"PL[0]=PL0"
$$ 		UNIT	"dB"
$$ 		FORMAT	"%14.2f dB"
$$ 		TEXT	" "
$$ END
$$ T_NAME		PL1
$$ 		TYPE	R32
$$ 		CLASS	ACQU
$$ 		SUBRANGE -6.0 1e38
$$ 		REL	"PL1=PL[1]"
$$ 		INV_REL	"PL[1]=PL1"
$$ 		UNIT	"dB"
$$ 		FORMAT	"%14.2f dB"
$$ 		TEXT	" "
$$ END
$$ T_NAME		PL0W
$$ 		TYPE	R32
$$ 		CLASS	ACQU
$$ 		SUBRANGE -6.0 1e38
$$ 		REL	"PL0W=329*pow(10.0,(-6-PL[0])/10.0)"
$$ 		INV_REL	"PL[0]=-6-4.3425*log(PL0W/329)"
$$ 		UNIT	"no"
$$ 		FORMAT	"%14.8f W"
$$ 		TEXT	" "
$$ END
$$ T_NAME		PL1W
$$ 		TYPE	R32
$$ 		CLASS	ACQU
$$ 		SUBRANGE -6.0 1e38
$$ 		REL	"PL1W=329*pow(10.0,(-6-PL[1])/10.0)"
$$ 		INV_REL	"PL[1]=-6-4.3425*log(PL1W/329)"
$$ 		UNIT	"no"
$$ 		FORMAT	"%14.8f W"
$$ 		TEXT	" "
$$ END
$$ NAME		SFO1
$$ 		FORMAT	"%14.7f MHz"
$$ 		TEXT	" "
$$ END
$$ T_NAME		SP2
$$ 		TYPE	R32
$$ 		CLASS	ACQU
$$ 		SUBRANGE -6.0 120
$$ 		REL	"SP2=SP[2]"
$$ 		INV_REL	"SP[2]=SP2"
$$ 		UNIT	"dB"
$$ 		FORMAT	"%14.2f dB"
$$ 		TEXT	" "
$$ END
$$ NAME		SPNAM2
$$ 		TEXT	" "
$$ END
$$ T_NAME		SPOAL2
$$ 		TYPE	R32
$$ 		CLASS	ACQU
$$ 		SUBRANGE -1.0 1.0
$$ 		REL	"SPOAL2=SPOAL[2]"
$$ 		INV_REL	"SPOAL[2]=SPOAL2"
$$ 		FORMAT	"%14.3f"
$$ 		TEXT	" "
$$ END
$$ T_NAME		SPOFFS2
$$ 		TYPE	R32
$$ 		CLASS	ACQU
$$ 		SUBRANGE -1e38 1e38
$$ 		REL	"SPOFFS2=SPOFFS[2]"
$$ 		INV_REL	"SPOFFS[0]=SPOFFS0"
$$ 		UNIT	"Hz"
$$ 		FORMAT	"%14.2f Hz"
$$ 		TEXT	" "
$$ END
$$ HEADER		"======== CHANNEL f2 ========"
$$ NAME		CPDPRG2
$$ 		TEXT	" "
$$ END
$$ NAME		NUC2
$$ 		NONEDIT
$$ 		TEXT	" "
$$ END
$$ T_NAME		P0
$$ 		TYPE	R32
$$ 		CLASS	ACQU
$$ 		SUBRANGE 0.0 1.0e10
$$ 		REL	"P0=P[0]"
$$ 		INV_REL	"P[0]=P0"
$$ 		UNIT	"usec"
$$ 		FORMAT	"%14.2f usec"
$$ 		TEXT	" "
$$ END
$$ T_NAME		P3
$$ 		TYPE	R32
$$ 		CLASS	ACQU
$$ 		SUBRANGE 0.0 1.0e10
$$ 		REL	"P3=P[3]"
$$ 		INV_REL	"P[3]=P3"
$$ 		UNIT	"usec"
$$ 		FORMAT	"%14.2f usec"
$$ 		TEXT	" "
$$ END
$$ T_NAME		P4
$$ 		TYPE	R32
$$ 		CLASS	ACQU
$$ 		SUBRANGE 0.0 1.0e10
$$ 		REL	"P4=P[4]"
$$ 		INV_REL	"P[4]=P4"
$$ 		UNIT	"usec"
$$ 		FORMAT	"%14.2f usec"
$$ 		TEXT	" "
$$ END
$$ T_NAME		PCPD2
$$ 		TYPE	R32
$$ 		CLASS	ACQU
$$ 		SUBRANGE 0 1e38
$$ 		REL	"PCPD2=PCPD[2]"
$$ 		INV_REL	"PCPD[2]=PCPD2"
$$ 		UNIT	"usec"
$$ 		FORMAT	"%14.2f usec"
$$ 		TEXT	" "
$$ END
$$ T_NAME		PL2
$$ 		TYPE	R32
$$ 		CLASS	ACQU
$$ 		SUBRANGE -6.0 1e38
$$ 		REL	"PL2=PL[2]"
$$ 		INV_REL	"PL[2]=PL2"
$$ 		UNIT	"dB"
$$ 		FORMAT	"%14.2f dB"
$$ 		TEXT	" "
$$ END
$$ T_NAME		PL12
$$ 		TYPE	R32
$$ 		CLASS	ACQU
$$ 		SUBRANGE -6.0 1e38
$$ 		REL	"PL12=PL[12]"
$$ 		INV_REL	"PL[12]=PL12"
$$ 		UNIT	"dB"
$$ 		FORMAT	"%14.2f dB"
$$ 		TEXT	" "
$$ END
$$ T_NAME		PL2W
$$ 		TYPE	R32
$$ 		CLASS	ACQU
$$ 		SUBRANGE -6.0 1e38
$$ 		REL	"PL2W=47*pow(10.0,(-6-PL[2])/10.0)"
$$ 		INV_REL	"PL[2]=-6-4.3425*log(PL2W/47)"
$$ 		UNIT	"no"
$$ 		FORMAT	"%14.8f W"
$$ 		TEXT	" "
$$ END
$$ T_NAME		PL12W
$$ 		TYPE	R32
$$ 		CLASS	ACQU
$$ 		SUBRANGE -6.0 1e38
$$ 		REL	"PL12W=47*pow(10.0,(-6-PL[12])/10.0)"
$$ 		INV_REL	"PL[12]=-6-4.3425*log(PL12W/47)"
$$ 		UNIT	"no"
$$ 		FORMAT	"%14.8f W"
$$ 		TEXT	" "
$$ END
$$ NAME		SFO2
$$ 		FORMAT	"%14.7f MHz"
$$ 		TEXT	" "
$$ END
$$ HEADER		"====== GRADIENT CHANNEL ====="
$$ NAME		GPNAM1
$$ 		TEXT	" "
$$ END
$$ NAME		GPNAM2
$$ 		TEXT	" "
$$ END
$$ NAME		GPNAM3
$$ 		TEXT	" "
$$ END
$$ T_NAME		GPZ1
$$ 		TYPE	R32
$$ 		CLASS	ACQU
$$ 		SUBRANGE -100.0 100.0
$$ 		REL	"GPZ1=GPZ[1]"
$$ 		INV_REL	"GPZ[1]=GPZ1"
$$ 		UNIT	"%"
$$ 		FORMAT	"%14.2f %"
$$ 		TEXT	" "
$$ END
$$ T_NAME		GPZ2
$$ 		TYPE	R32
$$ 		CLASS	ACQU
$$ 		SUBRANGE -100.0 100.0
$$ 		REL	"GPZ2=GPZ[2]"
$$ 		INV_REL	"GPZ[2]=GPZ2"
$$ 		UNIT	"%"
$$ 		FORMAT	"%14.2f %"
$$ 		TEXT	" "
$$ END
$$ T_NAME		GPZ3
$$ 		TYPE	R32
$$ 		CLASS	ACQU
$$ 		SUBRANGE -100.0 100.0
$$ 		REL	"GPZ3=GPZ[3]"
$$ 		INV_REL	"GPZ[3]=GPZ3"
$$ 		UNIT	"%"
$$ 		FORMAT	"%14.2f %"
$$ 		TEXT	" "
$$ END
$$ T_NAME		P16
$$ 		TYPE	R32
$$ 		CLASS	ACQU
$$ 		SUBRANGE 0.0 1.0e10
$$ 		REL	"P16=P[16]"
$$ 		INV_REL	"P[16]=P16"
$$ 		UNIT	"usec"
$$ 		FORMAT	"%14.2f usec"
$$ 		TEXT	" "
$$ END
##$RELAX= 
##$BRUKER FILE EXP=scon2
$$ ##TITLE= Parameter file, TOPSPIN		Version 2.1
$$ ##JCAMPDX= 5.0
$$ ##DATATYPE= Parameter Values
$$ ##NPOINTS= 2	$$ modification sequence number
$$ ##ORIGIN= Bruker BioSpin GmbH
$$ ##OWNER= ocmess
$$ $$ 2009-06-26 06:16:00.079 +0200  ocmess@av600
$$ $$ /opt/topspin/data/ocmess/nmr/nesEX69/6/scon2
$$ $$ process /opt/topspin2.1/prog/mod/go
$$ ##$BLKTR= (0..15)
3 3 3 3 3 3 3 3 3 3 3 3 3 3 3 3
$$ ##$DE1= 4.5
$$ ##$DEADC= 0.5
$$ ##$DEPA= 4.5
$$ ##$DERX= 1.5
$$ ##$FILCOR= 0.7
$$ ##END=
##$RELAX= 
##$BRUKER FILE EXP=spnam2
$$ ##TITLE= sm. comp. Chirp: 60kHz, 2ms
$$ ##JCAMP-DX= 5.00 Bruker JCAMP library
$$ ##DATA TYPE= Shape Data
$$ ##ORIGIN= Bruker BioSpin GmbH
$$ ##OWNER= <demo>
$$ ##DATE= 2005/09/22
$$ ##TIME= 18:40:13
$$ ##$SHAPE_PARAMETERS= Type: CompositeSmoothedChirp Add Const. Phase -84.0
$$ ##MINX= 0.000000E00
$$ ##MAXX= 1.000000E02
$$ ##MINY= 1.110750E-01
$$ ##MAXY= 3.599617E02
$$ ##$SHAPE_EXMODE= CompositeAdiabatic
$$ ##$SHAPE_TOTROT= 1.800000E02
$$ ##$SHAPE_TYPE= Refocussing
$$ ##$SHAPE_USER_DEF= 
$$ ##$SHAPE_REPHFAC= 
$$ ##$SHAPE_BWFAC= 8.099400E01
$$ ##$SHAPE_BWFAC50= 
$$ ##$SHAPE_INTEGFAC= 2.558317E-02
$$ ##$SHAPE_MODE= 0
$$ ##NPOINTS= 4000
$$ ##XYPOINTS= (XY..XY)
$$ 0.000000E00, 1.833013E02
$$ 7.893367E-01, 1.779122E02
$$ 1.578624E00, 1.725338E02
$$ 2.367813E00, 1.671662E02
$$ 3.156855E00, 1.618093E02
$$ 3.945700E00, 1.564633E02
$$ 4.734299E00, 1.511282E02
$$ 5.522603E00, 1.458037E02
$$ 6.310563E00, 1.404901E02
$$ 7.098130E00, 1.351873E02
$$ 7.885255E00, 1.298954E02
$$ 8.671888E00, 1.246142E02
$$ 9.457981E00, 1.193437E02
$$ 1.024348E01, 1.140841E02
$$ 1.102835E01, 1.088353E02
$$ 1.181253E01, 1.035973E02
$$ 1.259597E01, 9.837015E01
$$ 1.337863E01, 9.315375E01
$$ 1.416045E01, 8.794815E01
$$ 1.494139E01, 8.275335E01
$$ 1.572140E01, 7.756935E01
$$ 1.650044E01, 7.239615E01
$$ 1.727844E01, 6.723375E01
$$ 1.805537E01, 6.208215E01
$$ 1.883117E01, 5.694135E01
$$ 1.960579E01, 5.181135E01
$$ 2.037920E01, 4.669215E01
$$ 2.115134E01, 4.158375E01
$$ 2.192216E01, 3.648615E01
$$ 2.269161E01, 3.139935E01
$$ 2.345965E01, 2.632335E01
$$ 2.422623E01, 2.125815E01
$$ 2.499130E01, 1.620375E01
$$ 2.575481E01, 1.116015E01
$$ 2.651671E01, 6.127350E00
$$ 2.727697E01, 1.105350E00
$$ 2.803552E01, 3.560941E02
$$ 2.879233E01, 3.510937E02
$$ 2.954734E01, 3.461042E02
$$ 3.030052E01, 3.411253E02
$$ 3.105180E01, 3.361573E02
$$ 3.180115E01, 3.312001E02
$$ 3.254852E01, 3.262537E02
$$ 3.329386E01, 3.213182E02
$$ 3.403713E01, 3.163933E02
$$ 3.477828E01, 3.114793E02
$$ 3.551726E01, 3.065761E02
$$ 3.625402E01, 3.016837E02
$$ 3.698853E01, 2.968021E02
$$ 3.772073E01, 2.919314E02
$$ 3.845058E01, 2.870713E02
$$ 3.917804E01, 2.822221E02
$$ 3.990306E01, 2.773837E02
$$ 4.062559E01, 2.725561E02
$$ 4.134558E01, 2.677394E02
$$ 4.206301E01, 2.629333E02
$$ 4.277781E01, 2.581382E02
$$ 4.348994E01, 2.533537E02
$$ 4.419937E01, 2.485802E02
$$ 4.490604E01, 2.438174E02
$$ 4.560992E01, 2.390654E02
$$ 4.631095E01, 2.343241E02
$$ 4.700910E01, 2.295937E02
$$ 4.770431E01, 2.248741E02
$$ 4.839656E01, 2.201653E02
$$ 4.908579E01, 2.154674E02
$$ 4.977196E01, 2.107801E02
$$ 5.045503E01, 2.061038E02
$$ 5.113496E01, 2.014381E02
$$ 5.181170E01, 1.967834E02
$$ 5.248522E01, 1.921393E02
$$ 5.315546E01, 1.875062E02
$$ 5.382239E01, 1.828837E02
$$ 5.448597E01, 1.782721E02
$$ 5.514615E01, 1.736713E02
$$ 5.580290E01, 1.690813E02
$$ 5.645617E01, 1.645021E02
$$ 5.710592E01, 1.599337E02
$$ 5.775212E01, 1.553761E02
$$ 5.839471E01, 1.508293E02
$$ 5.903367E01, 1.462934E02
$$ 5.966895E01, 1.417682E02
$$ 6.030051E01, 1.372537E02
$$ 6.092832E01, 1.327501E02
$$ 6.155232E01, 1.282573E02
$$ 6.217250E01, 1.237754E02
$$ 6.278880E01, 1.193041E02
$$ 6.340118E01, 1.148438E02
$$ 6.400962E01, 1.103941E02
$$ 6.461407E01, 1.059553E02
$$ 6.521449E01, 1.015274E02
$$ 6.581085E01, 9.711015E01
$$ 6.640311E01, 9.270375E01
$$ 6.699124E01, 8.830815E01
$$ 6.757518E01, 8.392335E01
$$ 6.815492E01, 7.954935E01
$$ 6.873041E01, 7.518615E01
$$ 6.930162E01, 7.083375E01
$$ 6.986851E01, 6.649215E01
$$ 7.043105E01, 6.216135E01
$$ 7.098920E01, 5.784135E01
$$ 7.154293E01, 5.353215E01
$$ 7.209220E01, 4.923375E01
$$ 7.263698E01, 4.494615E01
$$ 7.317723E01, 4.066935E01
$$ 7.371292E01, 3.640335E01
$$ 7.424402E01, 3.214815E01
$$ 7.477049E01, 2.790375E01
$$ 7.529231E01, 2.367015E01
$$ 7.580943E01, 1.944735E01
$$ 7.632183E01, 1.523535E01
$$ 7.682948E01, 1.103415E01
$$ 7.733233E01, 6.843750E00
$$ 7.783037E01, 2.664150E00
$$ 7.832356E01, 3.584954E02
$$ 7.881187E01, 3.543373E02
$$ 7.929527E01, 3.501902E02
$$ 7.977373E01, 3.460537E02
$$ 8.024722E01, 3.419282E02
$$ 8.071571E01, 3.378133E02
$$ 8.117917E01, 3.337094E02
$$ 8.163757E01, 3.296161E02
$$ 8.209089E01, 3.255337E02
$$ 8.253909E01, 3.214621E02
$$ 8.298215E01, 3.174013E02
$$ 8.342003E01, 3.133514E02
$$ 8.385272E01, 3.093122E02
$$ 8.428019E01, 3.052837E02
$$ 8.470240E01, 3.012662E02
$$ 8.511934E01, 2.972593E02
$$ 8.553097E01, 2.932634E02
$$ 8.593728E01, 2.892781E02
$$ 8.633823E01, 2.853038E02
$$ 8.673380E01, 2.813401E02
$$ 8.712396E01, 2.773873E02
$$ 8.750870E01, 2.734453E02
$$ 8.788799E01, 2.695142E02
$$ 8.826180E01, 2.655938E02
$$ 8.863011E01, 2.616842E02
$$ 8.899290E01, 2.577854E02
$$ 8.935014E01, 2.538973E02
$$ 8.970182E01, 2.500202E02
$$ 9.004790E01, 2.461537E02
$$ 9.038838E01, 2.422981E02
$$ 9.072323E01, 2.384533E02
$$ 9.105242E01, 2.346193E02
$$ 9.137594E01, 2.307962E02
$$ 9.169376E01, 2.269838E02
$$ 9.200588E01, 2.231821E02
$$ 9.231226E01, 2.193914E02
$$ 9.261288E01, 2.156114E02
$$ 9.290774E01, 2.118421E02
$$ 9.319681E01, 2.080838E02
$$ 9.348008E01, 2.043361E02
$$ 9.375751E01, 2.005993E02
$$ 9.402911E01, 1.968733E02
$$ 9.429485E01, 1.931581E02
$$ 9.455471E01, 1.894537E02
$$ 9.480868E01, 1.857602E02
$$ 9.505675E01, 1.820774E02
$$ 9.529889E01, 1.784053E02
$$ 9.553510E01, 1.747442E02
$$ 9.576535E01, 1.710937E02
$$ 9.598963E01, 1.674542E02
$$ 9.620794E01, 1.638253E02
$$ 9.642025E01, 1.602074E02
$$ 9.662655E01, 1.566001E02
$$ 9.682683E01, 1.530037E02
$$ 9.702108E01, 1.494181E02
$$ 9.720928E01, 1.458434E02
$$ 9.739143E01, 1.422794E02
$$ 9.756751E01, 1.387261E02
$$ 9.773751E01, 1.351837E02
$$ 9.790142E01, 1.316521E02
$$ 9.805923E01, 1.281314E02
$$ 9.821093E01, 1.246213E02
$$ 9.835651E01, 1.211222E02
$$ 9.849597E01, 1.176337E02
$$ 9.862928E01, 1.141562E02
$$ 9.875646E01, 1.106893E02
$$ 9.887747E01, 1.072333E02
$$ 9.899233E01, 1.037881E02
$$ 9.910102E01, 1.003537E02
$$ 9.920354E01, 9.693015E01
$$ 9.929987E01, 9.351735E01
$$ 9.939002E01, 9.011535E01
$$ 9.947397E01, 8.672415E01
$$ 9.955173E01, 8.334375E01
$$ 9.962328E01, 7.997415E01
$$ 9.968863E01, 7.661535E01
$$ 9.974776E01, 7.326735E01
$$ 9.980069E01, 6.993015E01
$$ 9.984739E01, 6.660375E01
$$ 9.988787E01, 6.328815E01
$$ 9.992213E01, 5.998335E01
$$ 9.995016E01, 5.668935E01
$$ 9.997196E01, 5.340615E01
$$ 9.998754E01, 5.013375E01
$$ 9.999688E01, 4.687215E01
$$ 1.000000E02, 4.362135E01
$$ 1.000000E02, 4.038135E01
$$ 1.000000E02, 3.715215E01
$$ 1.000000E02, 3.393375E01
$$ 1.000000E02, 3.072615E01
$$ 1.000000E02, 2.752935E01
$$ 1.000000E02, 2.434335E01
$$ 1.000000E02, 2.116815E01
$$ 1.000000E02, 1.800375E01
$$ 1.000000E02, 1.485015E01
$$ 1.000000E02, 1.170735E01
$$ 1.000000E02, 8.575350E00
$$ 1.000000E02, 5.454150E00
$$ 1.000000E02, 2.343750E00
$$ 1.000000E02, 3.592442E02
$$ 1.000000E02, 3.561554E02
$$ 1.000000E02, 3.530773E02
$$ 1.000000E02, 3.500102E02
$$ 1.000000E02, 3.469537E02
$$ 1.000000E02, 3.439082E02
$$ 1.000000E02, 3.408734E02
$$ 1.000000E02, 3.378493E02
$$ 1.000000E02, 3.348362E02
$$ 1.000000E02, 3.318337E02
$$ 1.000000E02, 3.288422E02
$$ 1.000000E02, 3.258613E02
$$ 1.000000E02, 3.228914E02
$$ 1.000000E02, 3.199322E02
$$ 1.000000E02, 3.169838E02
$$ 1.000000E02, 3.140461E02
$$ 1.000000E02, 3.111193E02
$$ 1.000000E02, 3.082033E02
$$ 1.000000E02, 3.052981E02
$$ 1.000000E02, 3.024038E02
$$ 1.000000E02, 2.995201E02
$$ 1.000000E02, 2.966474E02
$$ 1.000000E02, 2.937853E02
$$ 1.000000E02, 2.909342E02
$$ 1.000000E02, 2.880937E02
$$ 1.000000E02, 2.852642E02
$$ 1.000000E02, 2.824453E02
$$ 1.000000E02, 2.796373E02
$$ 1.000000E02, 2.768402E02
$$ 1.000000E02, 2.740537E02
$$ 1.000000E02, 2.712782E02
$$ 1.000000E02, 2.685133E02
$$ 1.000000E02, 2.657594E02
$$ 1.000000E02, 2.630161E02
$$ 1.000000E02, 2.602838E02
$$ 1.000000E02, 2.575622E02
$$ 1.000000E02, 2.548513E02
$$ 1.000000E02, 2.521513E02
$$ 1.000000E02, 2.494621E02
$$ 1.000000E02, 2.467838E02
$$ 1.000000E02, 2.441161E02
$$ 1.000000E02, 2.414593E02
$$ 1.000000E02, 2.388133E02
$$ 1.000000E02, 2.361781E02
$$ 1.000000E02, 2.335537E02
$$ 1.000000E02, 2.309401E02
$$ 1.000000E02, 2.283374E02
$$ 1.000000E02, 2.257454E02
$$ 1.000000E02, 2.231642E02
$$ 1.000000E02, 2.205938E02
$$ 1.000000E02, 2.180342E02
$$ 1.000000E02, 2.154853E02
$$ 1.000000E02, 2.129473E02
$$ 1.000000E02, 2.104201E02
$$ 1.000000E02, 2.079038E02
$$ 1.000000E02, 2.053982E02
$$ 1.000000E02, 2.029034E02
$$ 1.000000E02, 2.004194E02
$$ 1.000000E02, 1.979462E02
$$ 1.000000E02, 1.954838E02
$$ 1.000000E02, 1.930322E02
$$ 1.000000E02, 1.905913E02
$$ 1.000000E02, 1.881613E02
$$ 1.000000E02, 1.857421E02
$$ 1.000000E02, 1.833337E02
$$ 1.000000E02, 1.809362E02
$$ 1.000000E02, 1.785494E02
$$ 1.000000E02, 1.761733E02
$$ 1.000000E02, 1.738082E02
$$ 1.000000E02, 1.714538E02
$$ 1.000000E02, 1.691101E02
$$ 1.000000E02, 1.667773E02
$$ 1.000000E02, 1.644553E02
$$ 1.000000E02, 1.621441E02
$$ 1.000000E02, 1.598437E02
$$ 1.000000E02, 1.575542E02
$$ 1.000000E02, 1.552753E02
$$ 1.000000E02, 1.530073E02
$$ 1.000000E02, 1.507502E02
$$ 1.000000E02, 1.485038E02
$$ 1.000000E02, 1.462681E02
$$ 1.000000E02, 1.440433E02
$$ 1.000000E02, 1.418293E02
$$ 1.000000E02, 1.396261E02
$$ 1.000000E02, 1.374338E02
$$ 1.000000E02, 1.352521E02
$$ 1.000000E02, 1.330814E02
$$ 1.000000E02, 1.309214E02
$$ 1.000000E02, 1.287722E02
$$ 1.000000E02, 1.266337E02
$$ 1.000000E02, 1.245061E02
$$ 1.000000E02, 1.223893E02
$$ 1.000000E02, 1.202833E02
$$ 1.000000E02, 1.181881E02
$$ 1.000000E02, 1.161037E02
$$ 1.000000E02, 1.140301E02
$$ 1.000000E02, 1.119673E02
$$ 1.000000E02, 1.099154E02
$$ 1.000000E02, 1.078741E02
$$ 1.000000E02, 1.058438E02
$$ 1.000000E02, 1.038241E02
$$ 1.000000E02, 1.018153E02
$$ 1.000000E02, 9.981735E01
$$ 1.000000E02, 9.783015E01
$$ 1.000000E02, 9.585375E01
$$ 1.000000E02, 9.388815E01
$$ 1.000000E02, 9.193335E01
$$ 1.000000E02, 8.998935E01
$$ 1.000000E02, 8.805615E01
$$ 1.000000E02, 8.613375E01
$$ 1.000000E02, 8.422215E01
$$ 1.000000E02, 8.232135E01
$$ 1.000000E02, 8.043135E01
$$ 1.000000E02, 7.855215E01
$$ 1.000000E02, 7.668375E01
$$ 1.000000E02, 7.482615E01
$$ 1.000000E02, 7.297935E01
$$ 1.000000E02, 7.114335E01
$$ 1.000000E02, 6.931815E01
$$ 1.000000E02, 6.750375E01
$$ 1.000000E02, 6.570015E01
$$ 1.000000E02, 6.390735E01
$$ 1.000000E02, 6.212535E01
$$ 1.000000E02, 6.035415E01
$$ 1.000000E02, 5.859375E01
$$ 1.000000E02, 5.684415E01
$$ 1.000000E02, 5.510535E01
$$ 1.000000E02, 5.337735E01
$$ 1.000000E02, 5.166015E01
$$ 1.000000E02, 4.995375E01
$$ 1.000000E02, 4.825815E01
$$ 1.000000E02, 4.657335E01
$$ 1.000000E02, 4.489935E01
$$ 1.000000E02, 4.323615E01
$$ 1.000000E02, 4.158375E01
$$ 1.000000E02, 3.994215E01
$$ 1.000000E02, 3.831135E01
$$ 1.000000E02, 3.669135E01
$$ 1.000000E02, 3.508215E01
$$ 1.000000E02, 3.348375E01
$$ 1.000000E02, 3.189615E01
$$ 1.000000E02, 3.031935E01
$$ 1.000000E02, 2.875335E01
$$ 1.000000E02, 2.719815E01
$$ 1.000000E02, 2.565375E01
$$ 1.000000E02, 2.412015E01
$$ 1.000000E02, 2.259735E01
$$ 1.000000E02, 2.108535E01
$$ 1.000000E02, 1.958415E01
$$ 1.000000E02, 1.809375E01
$$ 1.000000E02, 1.661415E01
$$ 1.000000E02, 1.514535E01
$$ 1.000000E02, 1.368735E01
$$ 1.000000E02, 1.224015E01
$$ 1.000000E02, 1.080375E01
$$ 1.000000E02, 9.378150E00
$$ 1.000000E02, 7.963350E00
$$ 1.000000E02, 6.559350E00
$$ 1.000000E02, 5.166150E00
$$ 1.000000E02, 3.783750E00
$$ 1.000000E02, 2.412150E00
$$ 1.000000E02, 1.051350E00
$$ 1.000000E02, 3.597014E02
$$ 1.000000E02, 3.583622E02
$$ 1.000000E02, 3.570338E02
$$ 1.000000E02, 3.557161E02
$$ 1.000000E02, 3.544094E02
$$ 1.000000E02, 3.531133E02
$$ 1.000000E02, 3.518282E02
$$ 1.000000E02, 3.505538E02
$$ 1.000000E02, 3.492902E02
$$ 1.000000E02, 3.480373E02
$$ 1.000000E02, 3.467954E02
$$ 1.000000E02, 3.455642E02
$$ 1.000000E02, 3.443438E02
$$ 1.000000E02, 3.431342E02
$$ 1.000000E02, 3.419353E02
$$ 1.000000E02, 3.407474E02
$$ 1.000000E02, 3.395702E02
$$ 1.000000E02, 3.384038E02
$$ 1.000000E02, 3.372482E02
$$ 1.000000E02, 3.361034E02
$$ 1.000000E02, 3.349693E02
$$ 1.000000E02, 3.338461E02
$$ 1.000000E02, 3.327338E02
$$ 1.000000E02, 3.316322E02
$$ 1.000000E02, 3.305413E02
$$ 1.000000E02, 3.294614E02
$$ 1.000000E02, 3.283922E02
$$ 1.000000E02, 3.273338E02
$$ 1.000000E02, 3.262862E02
$$ 1.000000E02, 3.252494E02
$$ 1.000000E02, 3.242234E02
$$ 1.000000E02, 3.232082E02
$$ 1.000000E02, 3.222038E02
$$ 1.000000E02, 3.212102E02
$$ 1.000000E02, 3.202274E02
$$ 1.000000E02, 3.192554E02
$$ 1.000000E02, 3.182942E02
$$ 1.000000E02, 3.173438E02
$$ 1.000000E02, 3.164042E02
$$ 1.000000E02, 3.154754E02
$$ 1.000000E02, 3.145574E02
$$ 1.000000E02, 3.136502E02
$$ 1.000000E02, 3.127537E02
$$ 1.000000E02, 3.118682E02
$$ 1.000000E02, 3.109933E02
$$ 1.000000E02, 3.101294E02
$$ 1.000000E02, 3.092762E02
$$ 1.000000E02, 3.084338E02
$$ 1.000000E02, 3.076022E02
$$ 1.000000E02, 3.067814E02
$$ 1.000000E02, 3.059714E02
$$ 1.000000E02, 3.051722E02
$$ 1.000000E02, 3.043838E02
$$ 1.000000E02, 3.036062E02
$$ 1.000000E02, 3.028393E02
$$ 1.000000E02, 3.020834E02
$$ 1.000000E02, 3.013382E02
$$ 1.000000E02, 3.006038E02
$$ 1.000000E02, 2.998802E02
$$ 1.000000E02, 2.991674E02
$$ 1.000000E02, 2.984654E02
$$ 1.000000E02, 2.977742E02
$$ 1.000000E02, 2.970938E02
$$ 1.000000E02, 2.964242E02
$$ 1.000000E02, 2.957654E02
$$ 1.000000E02, 2.951174E02
$$ 1.000000E02, 2.944802E02
$$ 1.000000E02, 2.938538E02
$$ 1.000000E02, 2.932382E02
$$ 1.000000E02, 2.926334E02
$$ 1.000000E02, 2.920394E02
$$ 1.000000E02, 2.914562E02
$$ 1.000000E02, 2.908837E02
$$ 1.000000E02, 2.903221E02
$$ 1.000000E02, 2.897714E02
$$ 1.000000E02, 2.892314E02
$$ 1.000000E02, 2.887022E02
$$ 1.000000E02, 2.881838E02
$$ 1.000000E02, 2.876762E02
$$ 1.000000E02, 2.871794E02
$$ 1.000000E02, 2.866934E02
$$ 1.000000E02, 2.862182E02
$$ 1.000000E02, 2.857537E02
$$ 1.000000E02, 2.853002E02
$$ 1.000000E02, 2.848574E02
$$ 1.000000E02, 2.844254E02
$$ 1.000000E02, 2.840042E02
$$ 1.000000E02, 2.835938E02
$$ 1.000000E02, 2.831942E02
$$ 1.000000E02, 2.828054E02
$$ 1.000000E02, 2.824274E02
$$ 1.000000E02, 2.820602E02
$$ 1.000000E02, 2.817038E02
$$ 1.000000E02, 2.813582E02
$$ 1.000000E02, 2.810234E02
$$ 1.000000E02, 2.806994E02
$$ 1.000000E02, 2.803862E02
$$ 1.000000E02, 2.800838E02
$$ 1.000000E02, 2.797922E02
$$ 1.000000E02, 2.795114E02
$$ 1.000000E02, 2.792414E02
$$ 1.000000E02, 2.789822E02
$$ 1.000000E02, 2.787338E02
$$ 1.000000E02, 2.784962E02
$$ 1.000000E02, 2.782694E02
$$ 1.000000E02, 2.780534E02
$$ 1.000000E02, 2.778482E02
$$ 1.000000E02, 2.776538E02
$$ 1.000000E02, 2.774702E02
$$ 1.000000E02, 2.772974E02
$$ 1.000000E02, 2.771354E02
$$ 1.000000E02, 2.769842E02
$$ 1.000000E02, 2.768438E02
$$ 1.000000E02, 2.767142E02
$$ 1.000000E02, 2.765954E02
$$ 1.000000E02, 2.764874E02
$$ 1.000000E02, 2.763902E02
$$ 1.000000E02, 2.763038E02
$$ 1.000000E02, 2.762282E02
$$ 1.000000E02, 2.761634E02
$$ 1.000000E02, 2.761094E02
$$ 1.000000E02, 2.760662E02
$$ 1.000000E02, 2.760338E02
$$ 1.000000E02, 2.760122E02
$$ 1.000000E02, 2.760014E02
$$ 1.000000E02, 2.760014E02
$$ 1.000000E02, 2.760122E02
$$ 1.000000E02, 2.760338E02
$$ 1.000000E02, 2.760662E02
$$ 1.000000E02, 2.761094E02
$$ 1.000000E02, 2.761634E02
$$ 1.000000E02, 2.762282E02
$$ 1.000000E02, 2.763038E02
$$ 1.000000E02, 2.763902E02
$$ 1.000000E02, 2.764874E02
$$ 1.000000E02, 2.765954E02
$$ 1.000000E02, 2.767142E02
$$ 1.000000E02, 2.768438E02
$$ 1.000000E02, 2.769842E02
$$ 1.000000E02, 2.771354E02
$$ 1.000000E02, 2.772974E02
$$ 1.000000E02, 2.774702E02
$$ 1.000000E02, 2.776538E02
$$ 1.000000E02, 2.778482E02
$$ 1.000000E02, 2.780534E02
$$ 1.000000E02, 2.782694E02
$$ 1.000000E02, 2.784962E02
$$ 1.000000E02, 2.787338E02
$$ 1.000000E02, 2.789822E02
$$ 1.000000E02, 2.792414E02
$$ 1.000000E02, 2.795114E02
$$ 1.000000E02, 2.797922E02
$$ 1.000000E02, 2.800838E02
$$ 1.000000E02, 2.803862E02
$$ 1.000000E02, 2.806994E02
$$ 1.000000E02, 2.810234E02
$$ 1.000000E02, 2.813582E02
$$ 1.000000E02, 2.817038E02
$$ 1.000000E02, 2.820602E02
$$ 1.000000E02, 2.824274E02
$$ 1.000000E02, 2.828054E02
$$ 1.000000E02, 2.831942E02
$$ 1.000000E02, 2.835938E02
$$ 1.000000E02, 2.840042E02
$$ 1.000000E02, 2.844254E02
$$ 1.000000E02, 2.848574E02
$$ 1.000000E02, 2.853002E02
$$ 1.000000E02, 2.857537E02
$$ 1.000000E02, 2.862182E02
$$ 1.000000E02, 2.866934E02
$$ 1.000000E02, 2.871794E02
$$ 1.000000E02, 2.876762E02
$$ 1.000000E02, 2.881838E02
$$ 1.000000E02, 2.887022E02
$$ 1.000000E02, 2.892314E02
$$ 1.000000E02, 2.897714E02
$$ 1.000000E02, 2.903221E02
$$ 1.000000E02, 2.908837E02
$$ 1.000000E02, 2.914562E02
$$ 1.000000E02, 2.920394E02
$$ 1.000000E02, 2.926334E02
$$ 1.000000E02, 2.932382E02
$$ 1.000000E02, 2.938538E02
$$ 1.000000E02, 2.944802E02
$$ 1.000000E02, 2.951174E02
$$ 1.000000E02, 2.957654E02
$$ 1.000000E02, 2.964242E02
$$ 1.000000E02, 2.970938E02
$$ 1.000000E02, 2.977742E02
$$ 1.000000E02, 2.984654E02
$$ 1.000000E02, 2.991674E02
$$ 1.000000E02, 2.998802E02
$$ 1.000000E02, 3.006038E02
$$ 1.000000E02, 3.013382E02
$$ 1.000000E02, 3.020834E02
$$ 1.000000E02, 3.028393E02
$$ 1.000000E02, 3.036062E02
$$ 1.000000E02, 3.043838E02
$$ 1.000000E02, 3.051722E02
$$ 1.000000E02, 3.059714E02
$$ 1.000000E02, 3.067814E02
$$ 1.000000E02, 3.076022E02
$$ 1.000000E02, 3.084338E02
$$ 1.000000E02, 3.092762E02
$$ 1.000000E02, 3.101294E02
$$ 1.000000E02, 3.109933E02
$$ 1.000000E02, 3.118682E02
$$ 1.000000E02, 3.127537E02
$$ 1.000000E02, 3.136502E02
$$ 1.000000E02, 3.145574E02
$$ 1.000000E02, 3.154754E02
$$ 1.000000E02, 3.164042E02
$$ 1.000000E02, 3.173438E02
$$ 1.000000E02, 3.182942E02
$$ 1.000000E02, 3.192554E02
$$ 1.000000E02, 3.202274E02
$$ 1.000000E02, 3.212102E02
$$ 1.000000E02, 3.222038E02
$$ 1.000000E02, 3.232082E02
$$ 1.000000E02, 3.242234E02
$$ 1.000000E02, 3.252494E02
$$ 1.000000E02, 3.262862E02
$$ 1.000000E02, 3.273338E02
$$ 1.000000E02, 3.283922E02
$$ 1.000000E02, 3.294614E02
$$ 1.000000E02, 3.305413E02
$$ 1.000000E02, 3.316322E02
$$ 1.000000E02, 3.327338E02
$$ 1.000000E02, 3.338461E02
$$ 1.000000E02, 3.349693E02
$$ 1.000000E02, 3.361034E02
$$ 1.000000E02, 3.372482E02
$$ 1.000000E02, 3.384038E02
$$ 1.000000E02, 3.395702E02
$$ 1.000000E02, 3.407474E02
$$ 1.000000E02, 3.419353E02
$$ 1.000000E02, 3.431342E02
$$ 1.000000E02, 3.443438E02
$$ 1.000000E02, 3.455642E02
$$ 1.000000E02, 3.467954E02
$$ 1.000000E02, 3.480373E02
$$ 1.000000E02, 3.492902E02
$$ 1.000000E02, 3.505538E02
$$ 1.000000E02, 3.518282E02
$$ 1.000000E02, 3.531133E02
$$ 1.000000E02, 3.544094E02
$$ 1.000000E02, 3.557161E02
$$ 1.000000E02, 3.570338E02
$$ 1.000000E02, 3.583622E02
$$ 1.000000E02, 3.597014E02
$$ 1.000000E02, 1.051350E00
$$ 1.000000E02, 2.412150E00
$$ 1.000000E02, 3.783750E00
$$ 1.000000E02, 5.166150E00
$$ 1.000000E02, 6.559350E00
$$ 1.000000E02, 7.963350E00
$$ 1.000000E02, 9.378150E00
$$ 1.000000E02, 1.080375E01
$$ 1.000000E02, 1.224015E01
$$ 1.000000E02, 1.368735E01
$$ 1.000000E02, 1.514535E01
$$ 1.000000E02, 1.661415E01
$$ 1.000000E02, 1.809375E01
$$ 1.000000E02, 1.958415E01
$$ 1.000000E02, 2.108535E01
$$ 1.000000E02, 2.259735E01
$$ 1.000000E02, 2.412015E01
$$ 1.000000E02, 2.565375E01
$$ 1.000000E02, 2.719815E01
$$ 1.000000E02, 2.875335E01
$$ 1.000000E02, 3.031935E01
$$ 1.000000E02, 3.189615E01
$$ 1.000000E02, 3.348375E01
$$ 1.000000E02, 3.508215E01
$$ 1.000000E02, 3.669135E01
$$ 1.000000E02, 3.831135E01
$$ 1.000000E02, 3.994215E01
$$ 1.000000E02, 4.158375E01
$$ 1.000000E02, 4.323615E01
$$ 1.000000E02, 4.489935E01
$$ 1.000000E02, 4.657335E01
$$ 1.000000E02, 4.825815E01
$$ 1.000000E02, 4.995375E01
$$ 1.000000E02, 5.166015E01
$$ 1.000000E02, 5.337735E01
$$ 1.000000E02, 5.510535E01
$$ 1.000000E02, 5.684415E01
$$ 1.000000E02, 5.859375E01
$$ 1.000000E02, 6.035415E01
$$ 1.000000E02, 6.212535E01
$$ 1.000000E02, 6.390735E01
$$ 1.000000E02, 6.570015E01
$$ 1.000000E02, 6.750375E01
$$ 1.000000E02, 6.931815E01
$$ 1.000000E02, 7.114335E01
$$ 1.000000E02, 7.297935E01
$$ 1.000000E02, 7.482615E01
$$ 1.000000E02, 7.668375E01
$$ 1.000000E02, 7.855215E01
$$ 1.000000E02, 8.043135E01
$$ 1.000000E02, 8.232135E01
$$ 1.000000E02, 8.422215E01
$$ 1.000000E02, 8.613375E01
$$ 1.000000E02, 8.805615E01
$$ 1.000000E02, 8.998935E01
$$ 1.000000E02, 9.193335E01
$$ 1.000000E02, 9.388815E01
$$ 1.000000E02, 9.585375E01
$$ 1.000000E02, 9.783015E01
$$ 1.000000E02, 9.981735E01
$$ 1.000000E02, 1.018153E02
$$ 1.000000E02, 1.038241E02
$$ 1.000000E02, 1.058438E02
$$ 1.000000E02, 1.078741E02
$$ 1.000000E02, 1.099154E02
$$ 1.000000E02, 1.119673E02
$$ 1.000000E02, 1.140301E02
$$ 1.000000E02, 1.161037E02
$$ 1.000000E02, 1.181881E02
$$ 1.000000E02, 1.202833E02
$$ 1.000000E02, 1.223893E02
$$ 1.000000E02, 1.245061E02
$$ 1.000000E02, 1.266337E02
$$ 1.000000E02, 1.287722E02
$$ 1.000000E02, 1.309214E02
$$ 1.000000E02, 1.330814E02
$$ 1.000000E02, 1.352521E02
$$ 1.000000E02, 1.374338E02
$$ 1.000000E02, 1.396261E02
$$ 1.000000E02, 1.418293E02
$$ 1.000000E02, 1.440433E02
$$ 1.000000E02, 1.462681E02
$$ 1.000000E02, 1.485038E02
$$ 1.000000E02, 1.507502E02
$$ 1.000000E02, 1.530073E02
$$ 1.000000E02, 1.552753E02
$$ 1.000000E02, 1.575542E02
$$ 1.000000E02, 1.598437E02
$$ 1.000000E02, 1.621441E02
$$ 1.000000E02, 1.644553E02
$$ 1.000000E02, 1.667773E02
$$ 1.000000E02, 1.691101E02
$$ 1.000000E02, 1.714538E02
$$ 1.000000E02, 1.738082E02
$$ 1.000000E02, 1.761733E02
$$ 1.000000E02, 1.785494E02
$$ 1.000000E02, 1.809362E02
$$ 1.000000E02, 1.833337E02
$$ 1.000000E02, 1.857421E02
$$ 1.000000E02, 1.881613E02
$$ 1.000000E02, 1.905913E02
$$ 1.000000E02, 1.930322E02
$$ 1.000000E02, 1.954838E02
$$ 1.000000E02, 1.979462E02
$$ 1.000000E02, 2.004194E02
$$ 1.000000E02, 2.029034E02
$$ 1.000000E02, 2.053982E02
$$ 1.000000E02, 2.079038E02
$$ 1.000000E02, 2.104201E02
$$ 1.000000E02, 2.129473E02
$$ 1.000000E02, 2.154853E02
$$ 1.000000E02, 2.180342E02
$$ 1.000000E02, 2.205938E02
$$ 1.000000E02, 2.231642E02
$$ 1.000000E02, 2.257454E02
$$ 1.000000E02, 2.283374E02
$$ 1.000000E02, 2.309401E02
$$ 1.000000E02, 2.335537E02
$$ 1.000000E02, 2.361781E02
$$ 1.000000E02, 2.388133E02
$$ 1.000000E02, 2.414593E02
$$ 1.000000E02, 2.441161E02
$$ 1.000000E02, 2.467838E02
$$ 1.000000E02, 2.494621E02
$$ 1.000000E02, 2.521513E02
$$ 1.000000E02, 2.548513E02
$$ 1.000000E02, 2.575622E02
$$ 1.000000E02, 2.602838E02
$$ 1.000000E02, 2.630161E02
$$ 1.000000E02, 2.657594E02
$$ 1.000000E02, 2.685133E02
$$ 1.000000E02, 2.712782E02
$$ 1.000000E02, 2.740537E02
$$ 1.000000E02, 2.768402E02
$$ 1.000000E02, 2.796373E02
$$ 1.000000E02, 2.824453E02
$$ 1.000000E02, 2.852642E02
$$ 1.000000E02, 2.880937E02
$$ 1.000000E02, 2.909342E02
$$ 1.000000E02, 2.937853E02
$$ 1.000000E02, 2.966474E02
$$ 1.000000E02, 2.995201E02
$$ 1.000000E02, 3.024038E02
$$ 1.000000E02, 3.052981E02
$$ 1.000000E02, 3.082033E02
$$ 1.000000E02, 3.111193E02
$$ 1.000000E02, 3.140461E02
$$ 1.000000E02, 3.169838E02
$$ 1.000000E02, 3.199322E02
$$ 1.000000E02, 3.228914E02
$$ 1.000000E02, 3.258613E02
$$ 1.000000E02, 3.288422E02
$$ 1.000000E02, 3.318337E02
$$ 1.000000E02, 3.348362E02
$$ 1.000000E02, 3.378493E02
$$ 1.000000E02, 3.408734E02
$$ 1.000000E02, 3.439082E02
$$ 1.000000E02, 3.469537E02
$$ 1.000000E02, 3.500102E02
$$ 1.000000E02, 3.530773E02
$$ 1.000000E02, 3.561554E02
$$ 1.000000E02, 3.592442E02
$$ 1.000000E02, 2.343750E00
$$ 1.000000E02, 5.454150E00
$$ 1.000000E02, 8.575350E00
$$ 1.000000E02, 1.170735E01
$$ 1.000000E02, 1.485015E01
$$ 1.000000E02, 1.800375E01
$$ 1.000000E02, 2.116815E01
$$ 1.000000E02, 2.434335E01
$$ 1.000000E02, 2.752935E01
$$ 1.000000E02, 3.072615E01
$$ 1.000000E02, 3.393375E01
$$ 1.000000E02, 3.715215E01
$$ 1.000000E02, 4.038135E01
$$ 1.000000E02, 4.362135E01
$$ 9.999688E01, 4.687215E01
$$ 9.998754E01, 5.013375E01
$$ 9.997196E01, 5.340615E01
$$ 9.995016E01, 5.668935E01
$$ 9.992213E01, 5.998335E01
$$ 9.988787E01, 6.328815E01
$$ 9.984739E01, 6.660375E01
$$ 9.980069E01, 6.993015E01
$$ 9.974776E01, 7.326735E01
$$ 9.968863E01, 7.661535E01
$$ 9.962328E01, 7.997415E01
$$ 9.955173E01, 8.334375E01
$$ 9.947397E01, 8.672415E01
$$ 9.939002E01, 9.011535E01
$$ 9.929987E01, 9.351735E01
$$ 9.920354E01, 9.693015E01
$$ 9.910102E01, 1.003537E02
$$ 9.899233E01, 1.037881E02
$$ 9.887747E01, 1.072333E02
$$ 9.875646E01, 1.106893E02
$$ 9.862928E01, 1.141562E02
$$ 9.849597E01, 1.176337E02
$$ 9.835651E01, 1.211222E02
$$ 9.821093E01, 1.246213E02
$$ 9.805923E01, 1.281314E02
$$ 9.790142E01, 1.316521E02
$$ 9.773751E01, 1.351837E02
$$ 9.756751E01, 1.387261E02
$$ 9.739143E01, 1.422794E02
$$ 9.720928E01, 1.458434E02
$$ 9.702108E01, 1.494181E02
$$ 9.682683E01, 1.530037E02
$$ 9.662655E01, 1.566001E02
$$ 9.642025E01, 1.602074E02
$$ 9.620794E01, 1.638253E02
$$ 9.598963E01, 1.674542E02
$$ 9.576535E01, 1.710937E02
$$ 9.553510E01, 1.747442E02
$$ 9.529889E01, 1.784053E02
$$ 9.505675E01, 1.820774E02
$$ 9.480868E01, 1.857602E02
$$ 9.455471E01, 1.894537E02
$$ 9.429485E01, 1.931581E02
$$ 9.402911E01, 1.968733E02
$$ 9.375751E01, 2.005993E02
$$ 9.348008E01, 2.043361E02
$$ 9.319681E01, 2.080838E02
$$ 9.290774E01, 2.118421E02
$$ 9.261288E01, 2.156114E02
$$ 9.231226E01, 2.193914E02
$$ 9.200588E01, 2.231821E02
$$ 9.169376E01, 2.269838E02
$$ 9.137594E01, 2.307962E02
$$ 9.105242E01, 2.346193E02
$$ 9.072323E01, 2.384533E02
$$ 9.038838E01, 2.422981E02
$$ 9.004790E01, 2.461537E02
$$ 8.970182E01, 2.500202E02
$$ 8.935014E01, 2.538973E02
$$ 8.899290E01, 2.577854E02
$$ 8.863011E01, 2.616842E02
$$ 8.826180E01, 2.655938E02
$$ 8.788799E01, 2.695142E02
$$ 8.750870E01, 2.734453E02
$$ 8.712396E01, 2.773873E02
$$ 8.673380E01, 2.813401E02
$$ 8.633823E01, 2.853038E02
$$ 8.593728E01, 2.892781E02
$$ 8.553097E01, 2.932634E02
$$ 8.511934E01, 2.972593E02
$$ 8.470240E01, 3.012662E02
$$ 8.428019E01, 3.052837E02
$$ 8.385272E01, 3.093122E02
$$ 8.342003E01, 3.133514E02
$$ 8.298215E01, 3.174013E02
$$ 8.253909E01, 3.214621E02
$$ 8.209089E01, 3.255337E02
$$ 8.163757E01, 3.296161E02
$$ 8.117917E01, 3.337094E02
$$ 8.071571E01, 3.378133E02
$$ 8.024722E01, 3.419282E02
$$ 7.977373E01, 3.460537E02
$$ 7.929527E01, 3.501902E02
$$ 7.881187E01, 3.543373E02
$$ 7.832356E01, 3.584954E02
$$ 7.783037E01, 2.664150E00
$$ 7.733233E01, 6.843750E00
$$ 7.682948E01, 1.103415E01
$$ 7.632183E01, 1.523535E01
$$ 7.580943E01, 1.944735E01
$$ 7.529231E01, 2.367015E01
$$ 7.477049E01, 2.790375E01
$$ 7.424402E01, 3.214815E01
$$ 7.371292E01, 3.640335E01
$$ 7.317723E01, 4.066935E01
$$ 7.263698E01, 4.494615E01
$$ 7.209220E01, 4.923375E01
$$ 7.154293E01, 5.353215E01
$$ 7.098920E01, 5.784135E01
$$ 7.043105E01, 6.216135E01
$$ 6.986851E01, 6.649215E01
$$ 6.930162E01, 7.083375E01
$$ 6.873041E01, 7.518615E01
$$ 6.815492E01, 7.954935E01
$$ 6.757518E01, 8.392335E01
$$ 6.699124E01, 8.830815E01
$$ 6.640311E01, 9.270375E01
$$ 6.581085E01, 9.711015E01
$$ 6.521449E01, 1.015274E02
$$ 6.461407E01, 1.059553E02
$$ 6.400962E01, 1.103941E02
$$ 6.340118E01, 1.148438E02
$$ 6.278880E01, 1.193041E02
$$ 6.217250E01, 1.237754E02
$$ 6.155232E01, 1.282573E02
$$ 6.092832E01, 1.327501E02
$$ 6.030051E01, 1.372537E02
$$ 5.966895E01, 1.417682E02
$$ 5.903367E01, 1.462934E02
$$ 5.839471E01, 1.508293E02
$$ 5.775212E01, 1.553761E02
$$ 5.710592E01, 1.599337E02
$$ 5.645617E01, 1.645021E02
$$ 5.580290E01, 1.690813E02
$$ 5.514615E01, 1.736713E02
$$ 5.448597E01, 1.782721E02
$$ 5.382239E01, 1.828837E02
$$ 5.315546E01, 1.875062E02
$$ 5.248522E01, 1.921393E02
$$ 5.181170E01, 1.967834E02
$$ 5.113496E01, 2.014381E02
$$ 5.045503E01, 2.061038E02
$$ 4.977196E01, 2.107801E02
$$ 4.908579E01, 2.154674E02
$$ 4.839656E01, 2.201653E02
$$ 4.770431E01, 2.248741E02
$$ 4.700910E01, 2.295937E02
$$ 4.631095E01, 2.343241E02
$$ 4.560992E01, 2.390654E02
$$ 4.490604E01, 2.438174E02
$$ 4.419937E01, 2.485802E02
$$ 4.348994E01, 2.533537E02
$$ 4.277781E01, 2.581382E02
$$ 4.206301E01, 2.629333E02
$$ 4.134558E01, 2.677394E02
$$ 4.062559E01, 2.725561E02
$$ 3.990306E01, 2.773837E02
$$ 3.917804E01, 2.822221E02
$$ 3.845058E01, 2.870713E02
$$ 3.772073E01, 2.919314E02
$$ 3.698853E01, 2.968021E02
$$ 3.625402E01, 3.016837E02
$$ 3.551726E01, 3.065761E02
$$ 3.477828E01, 3.114793E02
$$ 3.403713E01, 3.163933E02
$$ 3.329386E01, 3.213182E02
$$ 3.254852E01, 3.262537E02
$$ 3.180115E01, 3.312001E02
$$ 3.105180E01, 3.361573E02
$$ 3.030052E01, 3.411253E02
$$ 2.954734E01, 3.461042E02
$$ 2.879233E01, 3.510937E02
$$ 2.803552E01, 3.560941E02
$$ 2.727697E01, 1.105350E00
$$ 2.651671E01, 6.127350E00
$$ 2.575481E01, 1.116015E01
$$ 2.499130E01, 1.620375E01
$$ 2.422623E01, 2.125815E01
$$ 2.345965E01, 2.632335E01
$$ 2.269161E01, 3.139935E01
$$ 2.192216E01, 3.648615E01
$$ 2.115134E01, 4.158375E01
$$ 2.037920E01, 4.669215E01
$$ 1.960579E01, 5.181135E01
$$ 1.883117E01, 5.694135E01
$$ 1.805537E01, 6.208215E01
$$ 1.727844E01, 6.723375E01
$$ 1.650044E01, 7.239615E01
$$ 1.572140E01, 7.756935E01
$$ 1.494139E01, 8.275335E01
$$ 1.416045E01, 8.794815E01
$$ 1.337863E01, 9.315375E01
$$ 1.259597E01, 9.837015E01
$$ 1.181253E01, 1.035973E02
$$ 1.102835E01, 1.088353E02
$$ 1.024348E01, 1.140841E02
$$ 9.457981E00, 1.193437E02
$$ 8.671888E00, 1.246142E02
$$ 7.885255E00, 1.298954E02
$$ 7.098130E00, 1.351873E02
$$ 6.310563E00, 1.404901E02
$$ 5.522603E00, 1.458037E02
$$ 4.734299E00, 1.511282E02
$$ 3.945700E00, 1.564633E02
$$ 3.156855E00, 1.618093E02
$$ 2.367813E00, 1.671662E02
$$ 1.578624E00, 1.725338E02
$$ 7.893367E-01, 1.779122E02
$$ 0.000000E00, 1.833013E02
$$ 0.000000E00, 9.330067E01
$$ 3.936823E-01, 8.790607E01
$$ 7.873584E-01, 8.251687E01
$$ 1.181022E00, 7.713307E01
$$ 1.574668E00, 7.175467E01
$$ 1.968289E00, 6.638167E01
$$ 2.361880E00, 6.101408E01
$$ 2.755434E00, 5.565187E01
$$ 3.148946E00, 5.029508E01
$$ 3.542408E00, 4.494368E01
$$ 3.935816E00, 3.959767E01
$$ 4.329163E00, 3.425707E01
$$ 4.722442E00, 2.892187E01
$$ 5.115649E00, 2.359208E01
$$ 5.508776E00, 1.826768E01
$$ 5.901818E00, 1.294867E01
$$ 6.294768E00, 7.635075E00
$$ 6.687621E00, 2.326875E00
$$ 7.080370E00, 3.570241E02
$$ 7.473009E00, 3.517267E02
$$ 7.865533E00, 3.464347E02
$$ 8.257935E00, 3.411481E02
$$ 8.650208E00, 3.358669E02
$$ 9.042348E00, 3.305911E02
$$ 9.434347E00, 3.253207E02
$$ 9.826200E00, 3.200557E02
$$ 1.021790E01, 3.147961E02
$$ 1.060944E01, 3.095419E02
$$ 1.100082E01, 3.042931E02
$$ 1.139203E01, 2.990497E02
$$ 1.178306E01, 2.938117E02
$$ 1.217391E01, 2.885791E02
$$ 1.256457E01, 2.833519E02
$$ 1.295503E01, 2.781301E02
$$ 1.334530E01, 2.729137E02
$$ 1.373536E01, 2.677027E02
$$ 1.412520E01, 2.624971E02
$$ 1.451483E01, 2.572969E02
$$ 1.490423E01, 2.521021E02
$$ 1.529340E01, 2.469127E02
$$ 1.568233E01, 2.417287E02
$$ 1.607102E01, 2.365501E02
$$ 1.645946E01, 2.313769E02
$$ 1.684764E01, 2.262091E02
$$ 1.723557E01, 2.210467E02
$$ 1.762323E01, 2.158897E02
$$ 1.801061E01, 2.107381E02
$$ 1.839771E01, 2.055919E02
$$ 1.878453E01, 2.004511E02
$$ 1.917106E01, 1.953157E02
$$ 1.955729E01, 1.901857E02
$$ 1.994322E01, 1.850611E02
$$ 2.032884E01, 1.799419E02
$$ 2.071415E01, 1.748281E02
$$ 2.109913E01, 1.697197E02
$$ 2.148379E01, 1.646167E02
$$ 2.186811E01, 1.595191E02
$$ 2.225209E01, 1.544269E02
$$ 2.263573E01, 1.493401E02
$$ 2.301902E01, 1.442587E02
$$ 2.340195E01, 1.391827E02
$$ 2.378452E01, 1.341121E02
$$ 2.416672E01, 1.290469E02
$$ 2.454855E01, 1.239871E02
$$ 2.492999E01, 1.189327E02
$$ 2.531105E01, 1.138837E02
$$ 2.569172E01, 1.088401E02
$$ 2.607199E01, 1.038019E02
$$ 2.645185E01, 9.876907E01
$$ 2.683131E01, 9.374168E01
$$ 2.721035E01, 8.871967E01
$$ 2.758896E01, 8.370307E01
$$ 2.796715E01, 7.869187E01
$$ 2.834491E01, 7.368607E01
$$ 2.872223E01, 6.868567E01
$$ 2.909910E01, 6.369067E01
$$ 2.947552E01, 5.870107E01
$$ 2.985148E01, 5.371687E01
$$ 3.022698E01, 4.873808E01
$$ 3.060201E01, 4.376467E01
$$ 3.097657E01, 3.879668E01
$$ 3.135065E01, 3.383407E01
$$ 3.172424E01, 2.887687E01
$$ 3.209734E01, 2.392508E01
$$ 3.246995E01, 1.897867E01
$$ 3.284205E01, 1.403768E01
$$ 3.321364E01, 9.102075E00
$$ 3.358471E01, 4.171875E00
$$ 3.395527E01, 3.592471E02
$$ 3.432530E01, 3.543277E02
$$ 3.469480E01, 3.494137E02
$$ 3.506376E01, 3.445051E02
$$ 3.543217E01, 3.396019E02
$$ 3.580004E01, 3.347041E02
$$ 3.616735E01, 3.298117E02
$$ 3.653410E01, 3.249247E02
$$ 3.690029E01, 3.200431E02
$$ 3.726590E01, 3.151669E02
$$ 3.763094E01, 3.102961E02
$$ 3.799539E01, 3.054307E02
$$ 3.835925E01, 3.005707E02
$$ 3.872252E01, 2.957161E02
$$ 3.908519E01, 2.908669E02
$$ 3.944726E01, 2.860231E02
$$ 3.980871E01, 2.811847E02
$$ 4.016954E01, 2.763517E02
$$ 4.052975E01, 2.715241E02
$$ 4.088934E01, 2.667019E02
$$ 4.124829E01, 2.618851E02
$$ 4.160660E01, 2.570737E02
$$ 4.196427E01, 2.522677E02
$$ 4.232128E01, 2.474671E02
$$ 4.267764E01, 2.426719E02
$$ 4.303334E01, 2.378821E02
$$ 4.338837E01, 2.330977E02
$$ 4.374273E01, 2.283187E02
$$ 4.409641E01, 2.235451E02
$$ 4.444941E01, 2.187769E02
$$ 4.480172E01, 2.140141E02
$$ 4.515334E01, 2.092567E02
$$ 4.550425E01, 2.045047E02
$$ 4.585446E01, 1.997581E02
$$ 4.620396E01, 1.950169E02
$$ 4.655274E01, 1.902811E02
$$ 4.690080E01, 1.855507E02
$$ 4.724814E01, 1.808257E02
$$ 4.759474E01, 1.761061E02
$$ 4.794060E01, 1.713919E02
$$ 4.828573E01, 1.666831E02
$$ 4.863010E01, 1.619797E02
$$ 4.897372E01, 1.572817E02
$$ 4.931658E01, 1.525891E02
$$ 4.965867E01, 1.479019E02
$$ 5.000000E01, 1.432201E02
$$ 5.034055E01, 1.385437E02
$$ 5.068032E01, 1.338727E02
$$ 5.101931E01, 1.292071E02
$$ 5.135750E01, 1.245469E02
$$ 5.169490E01, 1.198921E02
$$ 5.203150E01, 1.152427E02
$$ 5.236729E01, 1.105987E02
$$ 5.270227E01, 1.059601E02
$$ 5.303643E01, 1.013269E02
$$ 5.336978E01, 9.669908E01
$$ 5.370229E01, 9.207667E01
$$ 5.403397E01, 8.745968E01
$$ 5.436481E01, 8.284807E01
$$ 5.469482E01, 7.824187E01
$$ 5.502397E01, 7.364107E01
$$ 5.535227E01, 6.904567E01
$$ 5.567971E01, 6.445567E01
$$ 5.600629E01, 5.987107E01
$$ 5.633201E01, 5.529187E01
$$ 5.665684E01, 5.071807E01
$$ 5.698081E01, 4.614968E01
$$ 5.730388E01, 4.158668E01
$$ 5.762607E01, 3.702907E01
$$ 5.794737E01, 3.247687E01
$$ 5.826777E01, 2.793007E01
$$ 5.858726E01, 2.338867E01
$$ 5.890585E01, 1.885268E01
$$ 5.922353E01, 1.432207E01
$$ 5.954028E01, 9.796875E00
$$ 5.985612E01, 5.277075E00
$$ 6.017102E01, 7.626750E-01
$$ 6.048499E01, 3.562537E02
$$ 6.079803E01, 3.517501E02
$$ 6.111012E01, 3.472519E02
$$ 6.142127E01, 3.427591E02
$$ 6.173147E01, 3.382717E02
$$ 6.204070E01, 3.337897E02
$$ 6.234898E01, 3.293131E02
$$ 6.265629E01, 3.248419E02
$$ 6.296263E01, 3.203761E02
$$ 6.326799E01, 3.159157E02
$$ 6.357237E01, 3.114607E02
$$ 6.387577E01, 3.070111E02
$$ 6.417818E01, 3.025669E02
$$ 6.447959E01, 2.981281E02
$$ 6.478001E01, 2.936947E02
$$ 6.507941E01, 2.892667E02
$$ 6.537782E01, 2.848441E02
$$ 6.567520E01, 2.804269E02
$$ 6.597157E01, 2.760151E02
$$ 6.626692E01, 2.716087E02
$$ 6.656124E01, 2.672077E02
$$ 6.685453E01, 2.628121E02
$$ 6.714678E01, 2.584219E02
$$ 6.743799E01, 2.540371E02
$$ 6.772816E01, 2.496577E02
$$ 6.801727E01, 2.452837E02
$$ 6.830534E01, 2.409151E02
$$ 6.859234E01, 2.365519E02
$$ 6.887828E01, 2.321941E02
$$ 6.916315E01, 2.278417E02
$$ 6.944696E01, 2.234947E02
$$ 6.972968E01, 2.191531E02
$$ 7.001132E01, 2.148169E02
$$ 7.029188E01, 2.104861E02
$$ 7.057135E01, 2.061607E02
$$ 7.084973E01, 2.018407E02
$$ 7.112701E01, 1.975261E02
$$ 7.140318E01, 1.932169E02
$$ 7.167825E01, 1.889131E02
$$ 7.195221E01, 1.846147E02
$$ 7.222505E01, 1.803217E02
$$ 7.249678E01, 1.760341E02
$$ 7.276738E01, 1.717519E02
$$ 7.303685E01, 1.674751E02
$$ 7.330519E01, 1.632037E02
$$ 7.357239E01, 1.589377E02
$$ 7.383845E01, 1.546771E02
$$ 7.410337E01, 1.504219E02
$$ 7.436714E01, 1.461721E02
$$ 7.462976E01, 1.419277E02
$$ 7.489122E01, 1.376887E02
$$ 7.515152E01, 1.334551E02
$$ 7.541066E01, 1.292269E02
$$ 7.566863E01, 1.250041E02
$$ 7.592542E01, 1.207867E02
$$ 7.618104E01, 1.165747E02
$$ 7.643548E01, 1.123681E02
$$ 7.668873E01, 1.081669E02
$$ 7.694079E01, 1.039711E02
$$ 7.719167E01, 9.978067E01
$$ 7.744134E01, 9.559567E01
$$ 7.768981E01, 9.141607E01
$$ 7.793709E01, 8.724187E01
$$ 7.818315E01, 8.307307E01
$$ 7.842800E01, 7.890967E01
$$ 7.867163E01, 7.475167E01
$$ 7.891405E01, 7.059908E01
$$ 7.915524E01, 6.645187E01
$$ 7.939521E01, 6.231007E01
$$ 7.963395E01, 5.817368E01
$$ 7.987145E01, 5.404267E01
$$ 8.010771E01, 4.991708E01
$$ 8.034273E01, 4.579688E01
$$ 8.057651E01, 4.168207E01
$$ 8.080904E01, 3.757267E01
$$ 8.104031E01, 3.346867E01
$$ 8.127033E01, 2.937007E01
$$ 8.149909E01, 2.527687E01
$$ 8.172659E01, 2.118908E01
$$ 8.195282E01, 1.710667E01
$$ 8.217778E01, 1.302967E01
$$ 8.240147E01, 8.958075E00
$$ 8.262388E01, 4.891875E00
$$ 8.284501E01, 8.310750E-01
$$ 8.306485E01, 3.567757E02
$$ 8.328341E01, 3.527257E02
$$ 8.350068E01, 3.486811E02
$$ 8.371665E01, 3.446419E02
$$ 8.393132E01, 3.406081E02
$$ 8.414470E01, 3.365797E02
$$ 8.435677E01, 3.325567E02
$$ 8.456753E01, 3.285391E02
$$ 8.477698E01, 3.245269E02
$$ 8.498512E01, 3.205201E02
$$ 8.519194E01, 3.165187E02
$$ 8.539744E01, 3.125227E02
$$ 8.560162E01, 3.085321E02
$$ 8.580447E01, 3.045469E02
$$ 8.600599E01, 3.005671E02
$$ 8.620618E01, 2.965927E02
$$ 8.640503E01, 2.926237E02
$$ 8.660254E01, 2.886601E02
$$ 8.679871E01, 2.847019E02
$$ 8.699354E01, 2.807491E02
$$ 8.718701E01, 2.768017E02
$$ 8.737914E01, 2.728597E02
$$ 8.756991E01, 2.689231E02
$$ 8.775932E01, 2.649919E02
$$ 8.794738E01, 2.610661E02
$$ 8.813407E01, 2.571457E02
$$ 8.831939E01, 2.532307E02
$$ 8.850335E01, 2.493211E02
$$ 8.868593E01, 2.454169E02
$$ 8.886714E01, 2.415181E02
$$ 8.904697E01, 2.376247E02
$$ 8.922542E01, 2.337367E02
$$ 8.940249E01, 2.298541E02
$$ 8.957818E01, 2.259769E02
$$ 8.975247E01, 2.221051E02
$$ 8.992538E01, 2.182387E02
$$ 9.009689E01, 2.143777E02
$$ 9.026700E01, 2.105221E02
$$ 9.043572E01, 2.066719E02
$$ 9.060303E01, 2.028271E02
$$ 9.076894E01, 1.989877E02
$$ 9.093344E01, 1.951537E02
$$ 9.109653E01, 1.913251E02
$$ 9.125822E01, 1.875019E02
$$ 9.141848E01, 1.836841E02
$$ 9.157733E01, 1.798717E02
$$ 9.173476E01, 1.760647E02
$$ 9.189077E01, 1.722631E02
$$ 9.204536E01, 1.684669E02
$$ 9.219852E01, 1.646761E02
$$ 9.235024E01, 1.608907E02
$$ 9.250054E01, 1.571107E02
$$ 9.264941E01, 1.533361E02
$$ 9.279684E01, 1.495669E02
$$ 9.294283E01, 1.458031E02
$$ 9.308737E01, 1.420447E02
$$ 9.323048E01, 1.382917E02
$$ 9.337214E01, 1.345441E02
$$ 9.351236E01, 1.308019E02
$$ 9.365112E01, 1.270651E02
$$ 9.378844E01, 1.233337E02
$$ 9.392430E01, 1.196077E02
$$ 9.405870E01, 1.158871E02
$$ 9.419165E01, 1.121719E02
$$ 9.432314E01, 1.084621E02
$$ 9.445316E01, 1.047577E02
$$ 9.458172E01, 1.010587E02
$$ 9.470882E01, 9.736507E01
$$ 9.483445E01, 9.367687E01
$$ 9.495861E01, 8.999407E01
$$ 9.508129E01, 8.631668E01
$$ 9.520250E01, 8.264468E01
$$ 9.532224E01, 7.897807E01
$$ 9.544050E01, 7.531687E01
$$ 9.555728E01, 7.166107E01
$$ 9.567258E01, 6.801067E01
$$ 9.578640E01, 6.436568E01
$$ 9.589873E01, 6.072607E01
$$ 9.600957E01, 5.709187E01
$$ 9.611893E01, 5.346308E01
$$ 9.622680E01, 4.983967E01
$$ 9.633318E01, 4.622167E01
$$ 9.643806E01, 4.260907E01
$$ 9.654145E01, 3.900188E01
$$ 9.664334E01, 3.540008E01
$$ 9.674374E01, 3.180367E01
$$ 9.684263E01, 2.821267E01
$$ 9.694003E01, 2.462707E01
$$ 9.703592E01, 2.104688E01
$$ 9.713031E01, 1.747207E01
$$ 9.722319E01, 1.390267E01
$$ 9.731457E01, 1.033867E01
$$ 9.740443E01, 6.780075E00
$$ 9.749279E01, 3.226875E00
$$ 9.757964E01, 3.596791E02
$$ 9.766497E01, 3.561367E02
$$ 9.774879E01, 3.525997E02
$$ 9.783110E01, 3.490681E02
$$ 9.791189E01, 3.455419E02
$$ 9.799116E01, 3.420211E02
$$ 9.806892E01, 3.385057E02
$$ 9.814515E01, 3.349957E02
$$ 9.821986E01, 3.314911E02
$$ 9.829305E01, 3.279919E02
$$ 9.836472E01, 3.244981E02
$$ 9.843486E01, 3.210097E02
$$ 9.850348E01, 3.175267E02
$$ 9.857057E01, 3.140491E02
$$ 9.863613E01, 3.105769E02
$$ 9.870016E01, 3.071101E02
$$ 9.876267E01, 3.036487E02
$$ 9.882364E01, 3.001927E02
$$ 9.888308E01, 2.967421E02
$$ 9.894099E01, 2.932969E02
$$ 9.899737E01, 2.898571E02
$$ 9.905221E01, 2.864227E02
$$ 9.910551E01, 2.829937E02
$$ 9.915728E01, 2.795701E02
$$ 9.920752E01, 2.761519E02
$$ 9.925621E01, 2.727391E02
$$ 9.930337E01, 2.693317E02
$$ 9.934899E01, 2.659297E02
$$ 9.939307E01, 2.625331E02
$$ 9.943561E01, 2.591419E02
$$ 9.947660E01, 2.557561E02
$$ 9.951606E01, 2.523757E02
$$ 9.955397E01, 2.490007E02
$$ 9.959034E01, 2.456311E02
$$ 9.962517E01, 2.422669E02
$$ 9.965845E01, 2.389081E02
$$ 9.969019E01, 2.355547E02
$$ 9.972038E01, 2.322067E02
$$ 9.974903E01, 2.288641E02
$$ 9.977613E01, 2.255269E02
$$ 9.980168E01, 2.221951E02
$$ 9.982569E01, 2.188687E02
$$ 9.984815E01, 2.155477E02
$$ 9.986906E01, 2.122321E02
$$ 9.988843E01, 2.089219E02
$$ 9.990625E01, 2.056171E02
$$ 9.992252E01, 2.023177E02
$$ 9.993724E01, 1.990237E02
$$ 9.995041E01, 1.957351E02
$$ 9.996203E01, 1.924519E02
$$ 9.997210E01, 1.891741E02
$$ 9.998063E01, 1.859017E02
$$ 9.998760E01, 1.826347E02
$$ 9.999303E01, 1.793731E02
$$ 9.999690E01, 1.761169E02
$$ 9.999923E01, 1.728661E02
$$ 1.000000E02, 1.696207E02
$$ 1.000000E02, 1.663807E02
$$ 1.000000E02, 1.631461E02
$$ 1.000000E02, 1.599169E02
$$ 1.000000E02, 1.566931E02
$$ 1.000000E02, 1.534747E02
$$ 1.000000E02, 1.502617E02
$$ 1.000000E02, 1.470541E02
$$ 1.000000E02, 1.438519E02
$$ 1.000000E02, 1.406551E02
$$ 1.000000E02, 1.374637E02
$$ 1.000000E02, 1.342777E02
$$ 1.000000E02, 1.310971E02
$$ 1.000000E02, 1.279219E02
$$ 1.000000E02, 1.247521E02
$$ 1.000000E02, 1.215877E02
$$ 1.000000E02, 1.184287E02
$$ 1.000000E02, 1.152751E02
$$ 1.000000E02, 1.121269E02
$$ 1.000000E02, 1.089841E02
$$ 1.000000E02, 1.058467E02
$$ 1.000000E02, 1.027147E02
$$ 1.000000E02, 9.958808E01
$$ 1.000000E02, 9.646687E01
$$ 1.000000E02, 9.335107E01
$$ 1.000000E02, 9.024067E01
$$ 1.000000E02, 8.713567E01
$$ 1.000000E02, 8.403608E01
$$ 1.000000E02, 8.094188E01
$$ 1.000000E02, 7.785307E01
$$ 1.000000E02, 7.476967E01
$$ 1.000000E02, 7.169167E01
$$ 1.000000E02, 6.861908E01
$$ 1.000000E02, 6.555187E01
$$ 1.000000E02, 6.249007E01
$$ 1.000000E02, 5.943367E01
$$ 1.000000E02, 5.638267E01
$$ 1.000000E02, 5.333708E01
$$ 1.000000E02, 5.029688E01
$$ 1.000000E02, 4.726207E01
$$ 1.000000E02, 4.423267E01
$$ 1.000000E02, 4.120867E01
$$ 1.000000E02, 3.819007E01
$$ 1.000000E02, 3.517687E01
$$ 1.000000E02, 3.216908E01
$$ 1.000000E02, 2.916667E01
$$ 1.000000E02, 2.616967E01
$$ 1.000000E02, 2.317807E01
$$ 1.000000E02, 2.019187E01
$$ 1.000000E02, 1.721107E01
$$ 1.000000E02, 1.423568E01
$$ 1.000000E02, 1.126567E01
$$ 1.000000E02, 8.301075E00
$$ 1.000000E02, 5.341875E00
$$ 1.000000E02, 2.388075E00
$$ 1.000000E02, 3.594397E02
$$ 1.000000E02, 3.564967E02
$$ 1.000000E02, 3.535591E02
$$ 1.000000E02, 3.506269E02
$$ 1.000000E02, 3.477001E02
$$ 1.000000E02, 3.447787E02
$$ 1.000000E02, 3.418627E02
$$ 1.000000E02, 3.389521E02
$$ 1.000000E02, 3.360469E02
$$ 1.000000E02, 3.331471E02
$$ 1.000000E02, 3.302527E02
$$ 1.000000E02, 3.273637E02
$$ 1.000000E02, 3.244801E02
$$ 1.000000E02, 3.216019E02
$$ 1.000000E02, 3.187291E02
$$ 1.000000E02, 3.158617E02
$$ 1.000000E02, 3.129997E02
$$ 1.000000E02, 3.101431E02
$$ 1.000000E02, 3.072919E02
$$ 1.000000E02, 3.044461E02
$$ 1.000000E02, 3.016057E02
$$ 1.000000E02, 2.987707E02
$$ 1.000000E02, 2.959411E02
$$ 1.000000E02, 2.931169E02
$$ 1.000000E02, 2.902981E02
$$ 1.000000E02, 2.874847E02
$$ 1.000000E02, 2.846767E02
$$ 1.000000E02, 2.818741E02
$$ 1.000000E02, 2.790769E02
$$ 1.000000E02, 2.762851E02
$$ 1.000000E02, 2.734987E02
$$ 1.000000E02, 2.707177E02
$$ 1.000000E02, 2.679421E02
$$ 1.000000E02, 2.651719E02
$$ 1.000000E02, 2.624071E02
$$ 1.000000E02, 2.596477E02
$$ 1.000000E02, 2.568937E02
$$ 1.000000E02, 2.541451E02
$$ 1.000000E02, 2.514019E02
$$ 1.000000E02, 2.486641E02
$$ 1.000000E02, 2.459317E02
$$ 1.000000E02, 2.432047E02
$$ 1.000000E02, 2.404831E02
$$ 1.000000E02, 2.377669E02
$$ 1.000000E02, 2.350561E02
$$ 1.000000E02, 2.323507E02
$$ 1.000000E02, 2.296507E02
$$ 1.000000E02, 2.269561E02
$$ 1.000000E02, 2.242669E02
$$ 1.000000E02, 2.215831E02
$$ 1.000000E02, 2.189047E02
$$ 1.000000E02, 2.162317E02
$$ 1.000000E02, 2.135641E02
$$ 1.000000E02, 2.109019E02
$$ 1.000000E02, 2.082451E02
$$ 1.000000E02, 2.055937E02
$$ 1.000000E02, 2.029477E02
$$ 1.000000E02, 2.003071E02
$$ 1.000000E02, 1.976719E02
$$ 1.000000E02, 1.950421E02
$$ 1.000000E02, 1.924177E02
$$ 1.000000E02, 1.897987E02
$$ 1.000000E02, 1.871851E02
$$ 1.000000E02, 1.845769E02
$$ 1.000000E02, 1.819741E02
$$ 1.000000E02, 1.793767E02
$$ 1.000000E02, 1.767847E02
$$ 1.000000E02, 1.741981E02
$$ 1.000000E02, 1.716169E02
$$ 1.000000E02, 1.690411E02
$$ 1.000000E02, 1.664707E02
$$ 1.000000E02, 1.639057E02
$$ 1.000000E02, 1.613461E02
$$ 1.000000E02, 1.587919E02
$$ 1.000000E02, 1.562431E02
$$ 1.000000E02, 1.536997E02
$$ 1.000000E02, 1.511617E02
$$ 1.000000E02, 1.486291E02
$$ 1.000000E02, 1.461019E02
$$ 1.000000E02, 1.435801E02
$$ 1.000000E02, 1.410637E02
$$ 1.000000E02, 1.385527E02
$$ 1.000000E02, 1.360471E02
$$ 1.000000E02, 1.335469E02
$$ 1.000000E02, 1.310521E02
$$ 1.000000E02, 1.285627E02
$$ 1.000000E02, 1.260787E02
$$ 1.000000E02, 1.236001E02
$$ 1.000000E02, 1.211269E02
$$ 1.000000E02, 1.186591E02
$$ 1.000000E02, 1.161967E02
$$ 1.000000E02, 1.137397E02
$$ 1.000000E02, 1.112881E02
$$ 1.000000E02, 1.088419E02
$$ 1.000000E02, 1.064011E02
$$ 1.000000E02, 1.039657E02
$$ 1.000000E02, 1.015357E02
$$ 1.000000E02, 9.911107E01
$$ 1.000000E02, 9.669187E01
$$ 1.000000E02, 9.427807E01
$$ 1.000000E02, 9.186968E01
$$ 1.000000E02, 8.946667E01
$$ 1.000000E02, 8.706908E01
$$ 1.000000E02, 8.467687E01
$$ 1.000000E02, 8.229008E01
$$ 1.000000E02, 7.990868E01
$$ 1.000000E02, 7.753268E01
$$ 1.000000E02, 7.516207E01
$$ 1.000000E02, 7.279687E01
$$ 1.000000E02, 7.043707E01
$$ 1.000000E02, 6.808267E01
$$ 1.000000E02, 6.573368E01
$$ 1.000000E02, 6.339007E01
$$ 1.000000E02, 6.105188E01
$$ 1.000000E02, 5.871907E01
$$ 1.000000E02, 5.639168E01
$$ 1.000000E02, 5.406967E01
$$ 1.000000E02, 5.175308E01
$$ 1.000000E02, 4.944187E01
$$ 1.000000E02, 4.713607E01
$$ 1.000000E02, 4.483567E01
$$ 1.000000E02, 4.254067E01
$$ 1.000000E02, 4.025107E01
$$ 1.000000E02, 3.796687E01
$$ 1.000000E02, 3.568807E01
$$ 1.000000E02, 3.341467E01
$$ 1.000000E02, 3.114668E01
$$ 1.000000E02, 2.888407E01
$$ 1.000000E02, 2.662687E01
$$ 1.000000E02, 2.437507E01
$$ 1.000000E02, 2.212867E01
$$ 1.000000E02, 1.988768E01
$$ 1.000000E02, 1.765207E01
$$ 1.000000E02, 1.542188E01
$$ 1.000000E02, 1.319707E01
$$ 1.000000E02, 1.097767E01
$$ 1.000000E02, 8.763675E00
$$ 1.000000E02, 6.555075E00
$$ 1.000000E02, 4.351875E00
$$ 1.000000E02, 2.154075E00
$$ 1.000000E02, 3.599617E02
$$ 1.000000E02, 3.577747E02
$$ 1.000000E02, 3.555931E02
$$ 1.000000E02, 3.534169E02
$$ 1.000000E02, 3.512461E02
$$ 1.000000E02, 3.490807E02
$$ 1.000000E02, 3.469207E02
$$ 1.000000E02, 3.447661E02
$$ 1.000000E02, 3.426169E02
$$ 1.000000E02, 3.404731E02
$$ 1.000000E02, 3.383347E02
$$ 1.000000E02, 3.362017E02
$$ 1.000000E02, 3.340741E02
$$ 1.000000E02, 3.319519E02
$$ 1.000000E02, 3.298351E02
$$ 1.000000E02, 3.277237E02
$$ 1.000000E02, 3.256177E02
$$ 1.000000E02, 3.235171E02
$$ 1.000000E02, 3.214219E02
$$ 1.000000E02, 3.193321E02
$$ 1.000000E02, 3.172477E02
$$ 1.000000E02, 3.151687E02
$$ 1.000000E02, 3.130951E02
$$ 1.000000E02, 3.110269E02
$$ 1.000000E02, 3.089641E02
$$ 1.000000E02, 3.069067E02
$$ 1.000000E02, 3.048547E02
$$ 1.000000E02, 3.028081E02
$$ 1.000000E02, 3.007669E02
$$ 1.000000E02, 2.987311E02
$$ 1.000000E02, 2.967007E02
$$ 1.000000E02, 2.946757E02
$$ 1.000000E02, 2.926561E02
$$ 1.000000E02, 2.906419E02
$$ 1.000000E02, 2.886331E02
$$ 1.000000E02, 2.866297E02
$$ 1.000000E02, 2.846317E02
$$ 1.000000E02, 2.826391E02
$$ 1.000000E02, 2.806519E02
$$ 1.000000E02, 2.786701E02
$$ 1.000000E02, 2.766937E02
$$ 1.000000E02, 2.747227E02
$$ 1.000000E02, 2.727571E02
$$ 1.000000E02, 2.707969E02
$$ 1.000000E02, 2.688421E02
$$ 1.000000E02, 2.668927E02
$$ 1.000000E02, 2.649487E02
$$ 1.000000E02, 2.630101E02
$$ 1.000000E02, 2.610769E02
$$ 1.000000E02, 2.591491E02
$$ 1.000000E02, 2.572267E02
$$ 1.000000E02, 2.553097E02
$$ 1.000000E02, 2.533981E02
$$ 1.000000E02, 2.514919E02
$$ 1.000000E02, 2.495911E02
$$ 1.000000E02, 2.476957E02
$$ 1.000000E02, 2.458057E02
$$ 1.000000E02, 2.439211E02
$$ 1.000000E02, 2.420419E02
$$ 1.000000E02, 2.401681E02
$$ 1.000000E02, 2.382997E02
$$ 1.000000E02, 2.364367E02
$$ 1.000000E02, 2.345791E02
$$ 1.000000E02, 2.327269E02
$$ 1.000000E02, 2.308801E02
$$ 1.000000E02, 2.290387E02
$$ 1.000000E02, 2.272027E02
$$ 1.000000E02, 2.253721E02
$$ 1.000000E02, 2.235469E02
$$ 1.000000E02, 2.217271E02
$$ 1.000000E02, 2.199127E02
$$ 1.000000E02, 2.181037E02
$$ 1.000000E02, 2.163001E02
$$ 1.000000E02, 2.145019E02
$$ 1.000000E02, 2.127091E02
$$ 1.000000E02, 2.109217E02
$$ 1.000000E02, 2.091397E02
$$ 1.000000E02, 2.073631E02
$$ 1.000000E02, 2.055919E02
$$ 1.000000E02, 2.038261E02
$$ 1.000000E02, 2.020657E02
$$ 1.000000E02, 2.003107E02
$$ 1.000000E02, 1.985611E02
$$ 1.000000E02, 1.968169E02
$$ 1.000000E02, 1.950781E02
$$ 1.000000E02, 1.933447E02
$$ 1.000000E02, 1.916167E02
$$ 1.000000E02, 1.898941E02
$$ 1.000000E02, 1.881769E02
$$ 1.000000E02, 1.864651E02
$$ 1.000000E02, 1.847587E02
$$ 1.000000E02, 1.830577E02
$$ 1.000000E02, 1.813621E02
$$ 1.000000E02, 1.796719E02
$$ 1.000000E02, 1.779871E02
$$ 1.000000E02, 1.763077E02
$$ 1.000000E02, 1.746337E02
$$ 1.000000E02, 1.729651E02
$$ 1.000000E02, 1.713019E02
$$ 1.000000E02, 1.696441E02
$$ 1.000000E02, 1.679917E02
$$ 1.000000E02, 1.663447E02
$$ 1.000000E02, 1.647031E02
$$ 1.000000E02, 1.630669E02
$$ 1.000000E02, 1.614361E02
$$ 1.000000E02, 1.598107E02
$$ 1.000000E02, 1.581907E02
$$ 1.000000E02, 1.565761E02
$$ 1.000000E02, 1.549669E02
$$ 1.000000E02, 1.533631E02
$$ 1.000000E02, 1.517647E02
$$ 1.000000E02, 1.501717E02
$$ 1.000000E02, 1.485841E02
$$ 1.000000E02, 1.470019E02
$$ 1.000000E02, 1.454251E02
$$ 1.000000E02, 1.438537E02
$$ 1.000000E02, 1.422877E02
$$ 1.000000E02, 1.407271E02
$$ 1.000000E02, 1.391719E02
$$ 1.000000E02, 1.376221E02
$$ 1.000000E02, 1.360777E02
$$ 1.000000E02, 1.345387E02
$$ 1.000000E02, 1.330051E02
$$ 1.000000E02, 1.314769E02
$$ 1.000000E02, 1.299541E02
$$ 1.000000E02, 1.284367E02
$$ 1.000000E02, 1.269247E02
$$ 1.000000E02, 1.254181E02
$$ 1.000000E02, 1.239169E02
$$ 1.000000E02, 1.224211E02
$$ 1.000000E02, 1.209307E02
$$ 1.000000E02, 1.194457E02
$$ 1.000000E02, 1.179661E02
$$ 1.000000E02, 1.164919E02
$$ 1.000000E02, 1.150231E02
$$ 1.000000E02, 1.135597E02
$$ 1.000000E02, 1.121017E02
$$ 1.000000E02, 1.106491E02
$$ 1.000000E02, 1.092019E02
$$ 1.000000E02, 1.077601E02
$$ 1.000000E02, 1.063237E02
$$ 1.000000E02, 1.048927E02
$$ 1.000000E02, 1.034671E02
$$ 1.000000E02, 1.020469E02
$$ 1.000000E02, 1.006321E02
$$ 1.000000E02, 9.922267E01
$$ 1.000000E02, 9.781867E01
$$ 1.000000E02, 9.642008E01
$$ 1.000000E02, 9.502687E01
$$ 1.000000E02, 9.363907E01
$$ 1.000000E02, 9.225667E01
$$ 1.000000E02, 9.087967E01
$$ 1.000000E02, 8.950807E01
$$ 1.000000E02, 8.814188E01
$$ 1.000000E02, 8.678107E01
$$ 1.000000E02, 8.542567E01
$$ 1.000000E02, 8.407567E01
$$ 1.000000E02, 8.273107E01
$$ 1.000000E02, 8.139188E01
$$ 1.000000E02, 8.005807E01
$$ 1.000000E02, 7.872967E01
$$ 1.000000E02, 7.740667E01
$$ 1.000000E02, 7.608907E01
$$ 1.000000E02, 7.477687E01
$$ 1.000000E02, 7.347007E01
$$ 1.000000E02, 7.216868E01
$$ 1.000000E02, 7.087268E01
$$ 1.000000E02, 6.958208E01
$$ 1.000000E02, 6.829688E01
$$ 1.000000E02, 6.701708E01
$$ 1.000000E02, 6.574267E01
$$ 1.000000E02, 6.447367E01
$$ 1.000000E02, 6.321007E01
$$ 1.000000E02, 6.195188E01
$$ 1.000000E02, 6.069907E01
$$ 1.000000E02, 5.945167E01
$$ 1.000000E02, 5.820968E01
$$ 1.000000E02, 5.697307E01
$$ 1.000000E02, 5.574187E01
$$ 1.000000E02, 5.451608E01
$$ 1.000000E02, 5.329567E01
$$ 1.000000E02, 5.208067E01
$$ 1.000000E02, 5.087107E01
$$ 1.000000E02, 4.966687E01
$$ 1.000000E02, 4.846808E01
$$ 1.000000E02, 4.727468E01
$$ 1.000000E02, 4.608667E01
$$ 1.000000E02, 4.490408E01
$$ 1.000000E02, 4.372688E01
$$ 1.000000E02, 4.255507E01
$$ 1.000000E02, 4.138867E01
$$ 1.000000E02, 4.022767E01
$$ 1.000000E02, 3.907207E01
$$ 1.000000E02, 3.792187E01
$$ 1.000000E02, 3.677707E01
$$ 1.000000E02, 3.563767E01
$$ 1.000000E02, 3.450367E01
$$ 1.000000E02, 3.337507E01
$$ 1.000000E02, 3.225188E01
$$ 1.000000E02, 3.113407E01
$$ 1.000000E02, 3.002167E01
$$ 1.000000E02, 2.891467E01
$$ 1.000000E02, 2.781307E01
$$ 1.000000E02, 2.671688E01
$$ 1.000000E02, 2.562607E01
$$ 1.000000E02, 2.454067E01
$$ 1.000000E02, 2.346067E01
$$ 1.000000E02, 2.238608E01
$$ 1.000000E02, 2.131687E01
$$ 1.000000E02, 2.025307E01
$$ 1.000000E02, 1.919467E01
$$ 1.000000E02, 1.814167E01
$$ 1.000000E02, 1.709407E01
$$ 1.000000E02, 1.605187E01
$$ 1.000000E02, 1.501507E01
$$ 1.000000E02, 1.398367E01
$$ 1.000000E02, 1.295768E01
$$ 1.000000E02, 1.193707E01
$$ 1.000000E02, 1.092188E01
$$ 1.000000E02, 9.912075E00
$$ 1.000000E02, 8.907675E00
$$ 1.000000E02, 7.908675E00
$$ 1.000000E02, 6.915075E00
$$ 1.000000E02, 5.926875E00
$$ 1.000000E02, 4.944075E00
$$ 1.000000E02, 3.966675E00
$$ 1.000000E02, 2.994675E00
$$ 1.000000E02, 2.028075E00
$$ 1.000000E02, 1.066875E00
$$ 1.000000E02, 1.110750E-01
$$ 1.000000E02, 3.591607E02
$$ 1.000000E02, 3.582157E02
$$ 1.000000E02, 3.572761E02
$$ 1.000000E02, 3.563419E02
$$ 1.000000E02, 3.554131E02
$$ 1.000000E02, 3.544897E02
$$ 1.000000E02, 3.535717E02
$$ 1.000000E02, 3.526591E02
$$ 1.000000E02, 3.517519E02
$$ 1.000000E02, 3.508501E02
$$ 1.000000E02, 3.499537E02
$$ 1.000000E02, 3.490627E02
$$ 1.000000E02, 3.481771E02
$$ 1.000000E02, 3.472969E02
$$ 1.000000E02, 3.464221E02
$$ 1.000000E02, 3.455527E02
$$ 1.000000E02, 3.446887E02
$$ 1.000000E02, 3.438301E02
$$ 1.000000E02, 3.429769E02
$$ 1.000000E02, 3.421291E02
$$ 1.000000E02, 3.412867E02
$$ 1.000000E02, 3.404497E02
$$ 1.000000E02, 3.396181E02
$$ 1.000000E02, 3.387919E02
$$ 1.000000E02, 3.379711E02
$$ 1.000000E02, 3.371557E02
$$ 1.000000E02, 3.363457E02
$$ 1.000000E02, 3.355411E02
$$ 1.000000E02, 3.347419E02
$$ 1.000000E02, 3.339481E02
$$ 1.000000E02, 3.331597E02
$$ 1.000000E02, 3.323767E02
$$ 1.000000E02, 3.315991E02
$$ 1.000000E02, 3.308269E02
$$ 1.000000E02, 3.300601E02
$$ 1.000000E02, 3.292987E02
$$ 1.000000E02, 3.285427E02
$$ 1.000000E02, 3.277921E02
$$ 1.000000E02, 3.270469E02
$$ 1.000000E02, 3.263071E02
$$ 1.000000E02, 3.255727E02
$$ 1.000000E02, 3.248437E02
$$ 1.000000E02, 3.241201E02
$$ 1.000000E02, 3.234019E02
$$ 1.000000E02, 3.226891E02
$$ 1.000000E02, 3.219817E02
$$ 1.000000E02, 3.212797E02
$$ 1.000000E02, 3.205831E02
$$ 1.000000E02, 3.198919E02
$$ 1.000000E02, 3.192061E02
$$ 1.000000E02, 3.185257E02
$$ 1.000000E02, 3.178507E02
$$ 1.000000E02, 3.171811E02
$$ 1.000000E02, 3.165169E02
$$ 1.000000E02, 3.158581E02
$$ 1.000000E02, 3.152047E02
$$ 1.000000E02, 3.145567E02
$$ 1.000000E02, 3.139141E02
$$ 1.000000E02, 3.132769E02
$$ 1.000000E02, 3.126451E02
$$ 1.000000E02, 3.120187E02
$$ 1.000000E02, 3.113977E02
$$ 1.000000E02, 3.107821E02
$$ 1.000000E02, 3.101719E02
$$ 1.000000E02, 3.095671E02
$$ 1.000000E02, 3.089677E02
$$ 1.000000E02, 3.083737E02
$$ 1.000000E02, 3.077851E02
$$ 1.000000E02, 3.072019E02
$$ 1.000000E02, 3.066241E02
$$ 1.000000E02, 3.060517E02
$$ 1.000000E02, 3.054847E02
$$ 1.000000E02, 3.049231E02
$$ 1.000000E02, 3.043669E02
$$ 1.000000E02, 3.038161E02
$$ 1.000000E02, 3.032707E02
$$ 1.000000E02, 3.027307E02
$$ 1.000000E02, 3.021961E02
$$ 1.000000E02, 3.016669E02
$$ 1.000000E02, 3.011431E02
$$ 1.000000E02, 3.006247E02
$$ 1.000000E02, 3.001117E02
$$ 1.000000E02, 2.996041E02
$$ 1.000000E02, 2.991019E02
$$ 1.000000E02, 2.986051E02
$$ 1.000000E02, 2.981137E02
$$ 1.000000E02, 2.976277E02
$$ 1.000000E02, 2.971471E02
$$ 1.000000E02, 2.966719E02
$$ 1.000000E02, 2.962021E02
$$ 1.000000E02, 2.957377E02
$$ 1.000000E02, 2.952787E02
$$ 1.000000E02, 2.948251E02
$$ 1.000000E02, 2.943769E02
$$ 1.000000E02, 2.939341E02
$$ 1.000000E02, 2.934967E02
$$ 1.000000E02, 2.930647E02
$$ 1.000000E02, 2.926381E02
$$ 1.000000E02, 2.922169E02
$$ 1.000000E02, 2.918011E02
$$ 1.000000E02, 2.913907E02
$$ 1.000000E02, 2.909857E02
$$ 1.000000E02, 2.905861E02
$$ 1.000000E02, 2.901919E02
$$ 1.000000E02, 2.898031E02
$$ 1.000000E02, 2.894197E02
$$ 1.000000E02, 2.890417E02
$$ 1.000000E02, 2.886691E02
$$ 1.000000E02, 2.883019E02
$$ 1.000000E02, 2.879401E02
$$ 1.000000E02, 2.875837E02
$$ 1.000000E02, 2.872327E02
$$ 1.000000E02, 2.868871E02
$$ 1.000000E02, 2.865469E02
$$ 1.000000E02, 2.862121E02
$$ 1.000000E02, 2.858827E02
$$ 1.000000E02, 2.855587E02
$$ 1.000000E02, 2.852401E02
$$ 1.000000E02, 2.849269E02
$$ 1.000000E02, 2.846191E02
$$ 1.000000E02, 2.843167E02
$$ 1.000000E02, 2.840197E02
$$ 1.000000E02, 2.837281E02
$$ 1.000000E02, 2.834419E02
$$ 1.000000E02, 2.831611E02
$$ 1.000000E02, 2.828857E02
$$ 1.000000E02, 2.826157E02
$$ 1.000000E02, 2.823511E02
$$ 1.000000E02, 2.820919E02
$$ 1.000000E02, 2.818381E02
$$ 1.000000E02, 2.815897E02
$$ 1.000000E02, 2.813467E02
$$ 1.000000E02, 2.811091E02
$$ 1.000000E02, 2.808769E02
$$ 1.000000E02, 2.806501E02
$$ 1.000000E02, 2.804287E02
$$ 1.000000E02, 2.802127E02
$$ 1.000000E02, 2.800021E02
$$ 1.000000E02, 2.797969E02
$$ 1.000000E02, 2.795971E02
$$ 1.000000E02, 2.794027E02
$$ 1.000000E02, 2.792137E02
$$ 1.000000E02, 2.790301E02
$$ 1.000000E02, 2.788519E02
$$ 1.000000E02, 2.786791E02
$$ 1.000000E02, 2.785117E02
$$ 1.000000E02, 2.783497E02
$$ 1.000000E02, 2.781931E02
$$ 1.000000E02, 2.780419E02
$$ 1.000000E02, 2.778961E02
$$ 1.000000E02, 2.777557E02
$$ 1.000000E02, 2.776207E02
$$ 1.000000E02, 2.774911E02
$$ 1.000000E02, 2.773669E02
$$ 1.000000E02, 2.772481E02
$$ 1.000000E02, 2.771347E02
$$ 1.000000E02, 2.770267E02
$$ 1.000000E02, 2.769241E02
$$ 1.000000E02, 2.768269E02
$$ 1.000000E02, 2.767351E02
$$ 1.000000E02, 2.766487E02
$$ 1.000000E02, 2.765677E02
$$ 1.000000E02, 2.764921E02
$$ 1.000000E02, 2.764219E02
$$ 1.000000E02, 2.763571E02
$$ 1.000000E02, 2.762977E02
$$ 1.000000E02, 2.762437E02
$$ 1.000000E02, 2.761951E02
$$ 1.000000E02, 2.761519E02
$$ 1.000000E02, 2.761141E02
$$ 1.000000E02, 2.760817E02
$$ 1.000000E02, 2.760547E02
$$ 1.000000E02, 2.760331E02
$$ 1.000000E02, 2.760169E02
$$ 1.000000E02, 2.760061E02
$$ 1.000000E02, 2.760007E02
$$ 1.000000E02, 2.760007E02
$$ 1.000000E02, 2.760061E02
$$ 1.000000E02, 2.760169E02
$$ 1.000000E02, 2.760331E02
$$ 1.000000E02, 2.760547E02
$$ 1.000000E02, 2.760817E02
$$ 1.000000E02, 2.761141E02
$$ 1.000000E02, 2.761519E02
$$ 1.000000E02, 2.761951E02
$$ 1.000000E02, 2.762437E02
$$ 1.000000E02, 2.762977E02
$$ 1.000000E02, 2.763571E02
$$ 1.000000E02, 2.764219E02
$$ 1.000000E02, 2.764921E02
$$ 1.000000E02, 2.765677E02
$$ 1.000000E02, 2.766487E02
$$ 1.000000E02, 2.767351E02
$$ 1.000000E02, 2.768269E02
$$ 1.000000E02, 2.769241E02
$$ 1.000000E02, 2.770267E02
$$ 1.000000E02, 2.771347E02
$$ 1.000000E02, 2.772481E02
$$ 1.000000E02, 2.773669E02
$$ 1.000000E02, 2.774911E02
$$ 1.000000E02, 2.776207E02
$$ 1.000000E02, 2.777557E02
$$ 1.000000E02, 2.778961E02
$$ 1.000000E02, 2.780419E02
$$ 1.000000E02, 2.781931E02
$$ 1.000000E02, 2.783497E02
$$ 1.000000E02, 2.785117E02
$$ 1.000000E02, 2.786791E02
$$ 1.000000E02, 2.788519E02
$$ 1.000000E02, 2.790301E02
$$ 1.000000E02, 2.792137E02
$$ 1.000000E02, 2.794027E02
$$ 1.000000E02, 2.795971E02
$$ 1.000000E02, 2.797969E02
$$ 1.000000E02, 2.800021E02
$$ 1.000000E02, 2.802127E02
$$ 1.000000E02, 2.804287E02
$$ 1.000000E02, 2.806501E02
$$ 1.000000E02, 2.808769E02
$$ 1.000000E02, 2.811091E02
$$ 1.000000E02, 2.813467E02
$$ 1.000000E02, 2.815897E02
$$ 1.000000E02, 2.818381E02
$$ 1.000000E02, 2.820919E02
$$ 1.000000E02, 2.823511E02
$$ 1.000000E02, 2.826157E02
$$ 1.000000E02, 2.828857E02
$$ 1.000000E02, 2.831611E02
$$ 1.000000E02, 2.834419E02
$$ 1.000000E02, 2.837281E02
$$ 1.000000E02, 2.840197E02
$$ 1.000000E02, 2.843167E02
$$ 1.000000E02, 2.846191E02
$$ 1.000000E02, 2.849269E02
$$ 1.000000E02, 2.852401E02
$$ 1.000000E02, 2.855587E02
$$ 1.000000E02, 2.858827E02
$$ 1.000000E02, 2.862121E02
$$ 1.000000E02, 2.865469E02
$$ 1.000000E02, 2.868871E02
$$ 1.000000E02, 2.872327E02
$$ 1.000000E02, 2.875837E02
$$ 1.000000E02, 2.879401E02
$$ 1.000000E02, 2.883019E02
$$ 1.000000E02, 2.886691E02
$$ 1.000000E02, 2.890417E02
$$ 1.000000E02, 2.894197E02
$$ 1.000000E02, 2.898031E02
$$ 1.000000E02, 2.901919E02
$$ 1.000000E02, 2.905861E02
$$ 1.000000E02, 2.909857E02
$$ 1.000000E02, 2.913907E02
$$ 1.000000E02, 2.918011E02
$$ 1.000000E02, 2.922169E02
$$ 1.000000E02, 2.926381E02
$$ 1.000000E02, 2.930647E02
$$ 1.000000E02, 2.934967E02
$$ 1.000000E02, 2.939341E02
$$ 1.000000E02, 2.943769E02
$$ 1.000000E02, 2.948251E02
$$ 1.000000E02, 2.952787E02
$$ 1.000000E02, 2.957377E02
$$ 1.000000E02, 2.962021E02
$$ 1.000000E02, 2.966719E02
$$ 1.000000E02, 2.971471E02
$$ 1.000000E02, 2.976277E02
$$ 1.000000E02, 2.981137E02
$$ 1.000000E02, 2.986051E02
$$ 1.000000E02, 2.991019E02
$$ 1.000000E02, 2.996041E02
$$ 1.000000E02, 3.001117E02
$$ 1.000000E02, 3.006247E02
$$ 1.000000E02, 3.011431E02
$$ 1.000000E02, 3.016669E02
$$ 1.000000E02, 3.021961E02
$$ 1.000000E02, 3.027307E02
$$ 1.000000E02, 3.032707E02
$$ 1.000000E02, 3.038161E02
$$ 1.000000E02, 3.043669E02
$$ 1.000000E02, 3.049231E02
$$ 1.000000E02, 3.054847E02
$$ 1.000000E02, 3.060517E02
$$ 1.000000E02, 3.066241E02
$$ 1.000000E02, 3.072019E02
$$ 1.000000E02, 3.077851E02
$$ 1.000000E02, 3.083737E02
$$ 1.000000E02, 3.089677E02
$$ 1.000000E02, 3.095671E02
$$ 1.000000E02, 3.101719E02
$$ 1.000000E02, 3.107821E02
$$ 1.000000E02, 3.113977E02
$$ 1.000000E02, 3.120187E02
$$ 1.000000E02, 3.126451E02
$$ 1.000000E02, 3.132769E02
$$ 1.000000E02, 3.139141E02
$$ 1.000000E02, 3.145567E02
$$ 1.000000E02, 3.152047E02
$$ 1.000000E02, 3.158581E02
$$ 1.000000E02, 3.165169E02
$$ 1.000000E02, 3.171811E02
$$ 1.000000E02, 3.178507E02
$$ 1.000000E02, 3.185257E02
$$ 1.000000E02, 3.192061E02
$$ 1.000000E02, 3.198919E02
$$ 1.000000E02, 3.205831E02
$$ 1.000000E02, 3.212797E02
$$ 1.000000E02, 3.219817E02
$$ 1.000000E02, 3.226891E02
$$ 1.000000E02, 3.234019E02
$$ 1.000000E02, 3.241201E02
$$ 1.000000E02, 3.248437E02
$$ 1.000000E02, 3.255727E02
$$ 1.000000E02, 3.263071E02
$$ 1.000000E02, 3.270469E02
$$ 1.000000E02, 3.277921E02
$$ 1.000000E02, 3.285427E02
$$ 1.000000E02, 3.292987E02
$$ 1.000000E02, 3.300601E02
$$ 1.000000E02, 3.308269E02
$$ 1.000000E02, 3.315991E02
$$ 1.000000E02, 3.323767E02
$$ 1.000000E02, 3.331597E02
$$ 1.000000E02, 3.339481E02
$$ 1.000000E02, 3.347419E02
$$ 1.000000E02, 3.355411E02
$$ 1.000000E02, 3.363457E02
$$ 1.000000E02, 3.371557E02
$$ 1.000000E02, 3.379711E02
$$ 1.000000E02, 3.387919E02
$$ 1.000000E02, 3.396181E02
$$ 1.000000E02, 3.404497E02
$$ 1.000000E02, 3.412867E02
$$ 1.000000E02, 3.421291E02
$$ 1.000000E02, 3.429769E02
$$ 1.000000E02, 3.438301E02
$$ 1.000000E02, 3.446887E02
$$ 1.000000E02, 3.455527E02
$$ 1.000000E02, 3.464221E02
$$ 1.000000E02, 3.472969E02
$$ 1.000000E02, 3.481771E02
$$ 1.000000E02, 3.490627E02
$$ 1.000000E02, 3.499537E02
$$ 1.000000E02, 3.508501E02
$$ 1.000000E02, 3.517519E02
$$ 1.000000E02, 3.526591E02
$$ 1.000000E02, 3.535717E02
$$ 1.000000E02, 3.544897E02
$$ 1.000000E02, 3.554131E02
$$ 1.000000E02, 3.563419E02
$$ 1.000000E02, 3.572761E02
$$ 1.000000E02, 3.582157E02
$$ 1.000000E02, 3.591607E02
$$ 1.000000E02, 1.110750E-01
$$ 1.000000E02, 1.066875E00
$$ 1.000000E02, 2.028075E00
$$ 1.000000E02, 2.994675E00
$$ 1.000000E02, 3.966675E00
$$ 1.000000E02, 4.944075E00
$$ 1.000000E02, 5.926875E00
$$ 1.000000E02, 6.915075E00
$$ 1.000000E02, 7.908675E00
$$ 1.000000E02, 8.907675E00
$$ 1.000000E02, 9.912075E00
$$ 1.000000E02, 1.092188E01
$$ 1.000000E02, 1.193707E01
$$ 1.000000E02, 1.295768E01
$$ 1.000000E02, 1.398367E01
$$ 1.000000E02, 1.501507E01
$$ 1.000000E02, 1.605187E01
$$ 1.000000E02, 1.709407E01
$$ 1.000000E02, 1.814167E01
$$ 1.000000E02, 1.919467E01
$$ 1.000000E02, 2.025307E01
$$ 1.000000E02, 2.131687E01
$$ 1.000000E02, 2.238608E01
$$ 1.000000E02, 2.346067E01
$$ 1.000000E02, 2.454067E01
$$ 1.000000E02, 2.562607E01
$$ 1.000000E02, 2.671688E01
$$ 1.000000E02, 2.781307E01
$$ 1.000000E02, 2.891467E01
$$ 1.000000E02, 3.002167E01
$$ 1.000000E02, 3.113407E01
$$ 1.000000E02, 3.225188E01
$$ 1.000000E02, 3.337507E01
$$ 1.000000E02, 3.450367E01
$$ 1.000000E02, 3.563767E01
$$ 1.000000E02, 3.677707E01
$$ 1.000000E02, 3.792187E01
$$ 1.000000E02, 3.907207E01
$$ 1.000000E02, 4.022767E01
$$ 1.000000E02, 4.138867E01
$$ 1.000000E02, 4.255507E01
$$ 1.000000E02, 4.372688E01
$$ 1.000000E02, 4.490408E01
$$ 1.000000E02, 4.608667E01
$$ 1.000000E02, 4.727468E01
$$ 1.000000E02, 4.846808E01
$$ 1.000000E02, 4.966687E01
$$ 1.000000E02, 5.087107E01
$$ 1.000000E02, 5.208067E01
$$ 1.000000E02, 5.329567E01
$$ 1.000000E02, 5.451608E01
$$ 1.000000E02, 5.574187E01
$$ 1.000000E02, 5.697307E01
$$ 1.000000E02, 5.820968E01
$$ 1.000000E02, 5.945167E01
$$ 1.000000E02, 6.069907E01
$$ 1.000000E02, 6.195188E01
$$ 1.000000E02, 6.321007E01
$$ 1.000000E02, 6.447367E01
$$ 1.000000E02, 6.574267E01
$$ 1.000000E02, 6.701708E01
$$ 1.000000E02, 6.829688E01
$$ 1.000000E02, 6.958208E01
$$ 1.000000E02, 7.087268E01
$$ 1.000000E02, 7.216868E01
$$ 1.000000E02, 7.347007E01
$$ 1.000000E02, 7.477687E01
$$ 1.000000E02, 7.608907E01
$$ 1.000000E02, 7.740667E01
$$ 1.000000E02, 7.872967E01
$$ 1.000000E02, 8.005807E01
$$ 1.000000E02, 8.139188E01
$$ 1.000000E02, 8.273107E01
$$ 1.000000E02, 8.407567E01
$$ 1.000000E02, 8.542567E01
$$ 1.000000E02, 8.678107E01
$$ 1.000000E02, 8.814188E01
$$ 1.000000E02, 8.950807E01
$$ 1.000000E02, 9.087967E01
$$ 1.000000E02, 9.225667E01
$$ 1.000000E02, 9.363907E01
$$ 1.000000E02, 9.502687E01
$$ 1.000000E02, 9.642008E01
$$ 1.000000E02, 9.781867E01
$$ 1.000000E02, 9.922267E01
$$ 1.000000E02, 1.006321E02
$$ 1.000000E02, 1.020469E02
$$ 1.000000E02, 1.034671E02
$$ 1.000000E02, 1.048927E02
$$ 1.000000E02, 1.063237E02
$$ 1.000000E02, 1.077601E02
$$ 1.000000E02, 1.092019E02
$$ 1.000000E02, 1.106491E02
$$ 1.000000E02, 1.121017E02
$$ 1.000000E02, 1.135597E02
$$ 1.000000E02, 1.150231E02
$$ 1.000000E02, 1.164919E02
$$ 1.000000E02, 1.179661E02
$$ 1.000000E02, 1.194457E02
$$ 1.000000E02, 1.209307E02
$$ 1.000000E02, 1.224211E02
$$ 1.000000E02, 1.239169E02
$$ 1.000000E02, 1.254181E02
$$ 1.000000E02, 1.269247E02
$$ 1.000000E02, 1.284367E02
$$ 1.000000E02, 1.299541E02
$$ 1.000000E02, 1.314769E02
$$ 1.000000E02, 1.330051E02
$$ 1.000000E02, 1.345387E02
$$ 1.000000E02, 1.360777E02
$$ 1.000000E02, 1.376221E02
$$ 1.000000E02, 1.391719E02
$$ 1.000000E02, 1.407271E02
$$ 1.000000E02, 1.422877E02
$$ 1.000000E02, 1.438537E02
$$ 1.000000E02, 1.454251E02
$$ 1.000000E02, 1.470019E02
$$ 1.000000E02, 1.485841E02
$$ 1.000000E02, 1.501717E02
$$ 1.000000E02, 1.517647E02
$$ 1.000000E02, 1.533631E02
$$ 1.000000E02, 1.549669E02
$$ 1.000000E02, 1.565761E02
$$ 1.000000E02, 1.581907E02
$$ 1.000000E02, 1.598107E02
$$ 1.000000E02, 1.614361E02
$$ 1.000000E02, 1.630669E02
$$ 1.000000E02, 1.647031E02
$$ 1.000000E02, 1.663447E02
$$ 1.000000E02, 1.679917E02
$$ 1.000000E02, 1.696441E02
$$ 1.000000E02, 1.713019E02
$$ 1.000000E02, 1.729651E02
$$ 1.000000E02, 1.746337E02
$$ 1.000000E02, 1.763077E02
$$ 1.000000E02, 1.779871E02
$$ 1.000000E02, 1.796719E02
$$ 1.000000E02, 1.813621E02
$$ 1.000000E02, 1.830577E02
$$ 1.000000E02, 1.847587E02
$$ 1.000000E02, 1.864651E02
$$ 1.000000E02, 1.881769E02
$$ 1.000000E02, 1.898941E02
$$ 1.000000E02, 1.916167E02
$$ 1.000000E02, 1.933447E02
$$ 1.000000E02, 1.950781E02
$$ 1.000000E02, 1.968169E02
$$ 1.000000E02, 1.985611E02
$$ 1.000000E02, 2.003107E02
$$ 1.000000E02, 2.020657E02
$$ 1.000000E02, 2.038261E02
$$ 1.000000E02, 2.055919E02
$$ 1.000000E02, 2.073631E02
$$ 1.000000E02, 2.091397E02
$$ 1.000000E02, 2.109217E02
$$ 1.000000E02, 2.127091E02
$$ 1.000000E02, 2.145019E02
$$ 1.000000E02, 2.163001E02
$$ 1.000000E02, 2.181037E02
$$ 1.000000E02, 2.199127E02
$$ 1.000000E02, 2.217271E02
$$ 1.000000E02, 2.235469E02
$$ 1.000000E02, 2.253721E02
$$ 1.000000E02, 2.272027E02
$$ 1.000000E02, 2.290387E02
$$ 1.000000E02, 2.308801E02
$$ 1.000000E02, 2.327269E02
$$ 1.000000E02, 2.345791E02
$$ 1.000000E02, 2.364367E02
$$ 1.000000E02, 2.382997E02
$$ 1.000000E02, 2.401681E02
$$ 1.000000E02, 2.420419E02
$$ 1.000000E02, 2.439211E02
$$ 1.000000E02, 2.458057E02
$$ 1.000000E02, 2.476957E02
$$ 1.000000E02, 2.495911E02
$$ 1.000000E02, 2.514919E02
$$ 1.000000E02, 2.533981E02
$$ 1.000000E02, 2.553097E02
$$ 1.000000E02, 2.572267E02
$$ 1.000000E02, 2.591491E02
$$ 1.000000E02, 2.610769E02
$$ 1.000000E02, 2.630101E02
[...]
3302c08141n2341J2015J20986i3492c0634l947l3716L003K3829n8878j44140j41279
3290c85762m3846P2491J38434h6164a1088A1565E764L5308J17799J69075J62274
3279D90220O6585n6050j38918j35920n3797J0788M6836O5507M1325O518p442m3141
3267B92511r9975D7117i3368j00030o8236l8731K7099J11711c8397B2938L4562
3256E7500L8230J6665M49k0635G262i8940m0233L7966c3921a3613n9904j12905
3244a86422j32753j05351j7235O3394N6649j0k5273J941O4391J15013a4126A33711
3231B17169K7246L5091O6697O4085N7223P9731P5811o600j09163j68454A53964
3219a6688j35626j01058r0905j00428q7060r461P9519J48482h2831B51575L42341
3208E93916K32006J07254J5962o7266j54860j96937j67426q6247l7618k006M1131
3197B77909N0071K2516k1926m9115n1812r6072b345p7486L2457I6340J91420J33862
3185D21622L0335o2387j68097b2948j98436n9606K4323P468q1469j48406j18477
3174e97551r9577r3864K4357J85556K31731J72656g0235b2261j8454n8495m0887
3163a40097j88K1562K8236c6360D7327J01720J11618P9872N5802L6782J01J2862
3151D46084O8799P4428J1590n6366j06073j10399p3088p0231H4487A1392O806
3140A8198N4944N8820O8809O0722K7021L7126O0573L6263J7123N1057J30461J83389
3128H04506J60061J11770N3610m5800j56508k29986k36962j76462o1362N7157
3118B80024J17852J13570O5091L1890P3600J07973Q4755K3227q7994j98964k45163
3107C65861A50666b0707j12641m325c2171A32224J43047P2464L1712L4134R702
3096D23283n2636o1243K5661O9694j479q0547j17808F7642a3074D7828J63615
3085B11443J90257J36944K6222n6249q2876k2713P2960O3027k8077n0176j2289
3074D48473K073l2328l9439q53L4025O9899J12074J48395J55919J54724J82678
3063A235640J83290Q4978m7826j49806k64307l76672B73708B3178d5812J286R400
3052c5126L056k2962l3002J2024A2773R2341M5474J9218j1529m7508D5762c7226
3039a33224r1360n9686O272N2189P8506d4570A5782J1813L5039J09601J73676
3028C45911J90961J31815J261o9828l1256K4067P986p6333j67069A53648i139
3016a03428n2299k8545O265P2500D0247J38785R3266O8665K8541o3248A18272
3004a48806k60863j96832r7087k937O3584Q5831N9033M5638O5008R0637O9661
2993b27133j9663n4343L0925J26280b8715J1479r0429j21231p1837l2661m8701
2982c82095n2697m7072l6019j9678m1641q7459o6546N9590J75892J73594O8297
2971b55834p6686r5454O6570a78439c6941a5367r5233j71726j83843q7545K7428
2960e26286P4081R7575J53489c5959F3353M4973O8934Q9626L0434o7298A07035
2948B7172K032J6425B305g5390m3232q683m6470r8194p4620J6087P6314N1973
2936b02215k17k035N7422I823J95461R7074n8403G7696a01188j05876l7650J5346
2924b29368P5573d1566F2730O6772N4215O2360N0819L602m5894q4878q2579l2053
2912E5094O074k1564f6271j53432j07766P076M8517k1130q1375j24224j28036
2901f26641l5280O1253J05083J30824J45873i5095a4432C1718P455H507h911L533
2889e378k7479o5926r0519j02188r6064n2193N687M1950O5158Q8116O2200q47
2877a77483m1784o5489q5943q9524m8289K9677N8372K7796K5510M2762K9125P164
2865b88106K3585R2576b6869H6295L8734o725n7441c2688n4678J3428M120k6081
2853i5899K0568b5257A900L5519Q9239J12413Q4205K9357n461j8001k2102P868
2841C14937M3957M6786M4916R436k5981O193N5670N563j15164j62903H8300a2774
2828g4421l0986n458L998l1758q6257r6071l4529N0119J49202F1425K11119K28402
2816E00946K20408R3741m6305j05637j03455q3349q7186j08144A37921d3841j56236
2805b00077n9942j8513o1421p5384n1070j5996J7764O345l716L9734O9775L0824
2793c21677J5578Q3207g8777F1379J23473J07994N6525P585l153K0109K7990k9207
2781C72695o8392m5504k1694j7054n964M1379J03520J09244K7033p6172j60630
2770B58461G0886d3702m5094m2073p3066j01240r2205q7628r5919n9961J2382
2759f28506M7027Q155m8809n3061k1971K6069P9270R1302O3550K5187j4201j1114
2747d37102N6328J03511R7852N8236N527j024M8789B1974Q6679O1505Q766n6744
2735A22180B5009c8177G693J29656J14087K9020n1644r5514E1967n238O6022J09775
2723B22526J45837J06139j5706j30567A52210A1343i0280p1065k4008J1883M4083
2712a29387e8700h411k346l9474m5603j933a6074A02489O4980j2851m5224R089
2700A18483Q5035P4200l9140G6030a24620j56094n1172R2887g2145D0967P167
2689D8134B987K6900J84727K69300K11832J02459p255p7624j27863j96360A59859
2677b2885q5891L080d8156B8889O5510N2956O3830M3298k8824I1778a28671k16170
2665c44841j16842m456K9453N5994J04462J06441f1824I9570J69523P6324j5041
2654C30376m1246k0347Q6m1028r8571a8247j61713j04936n7353r61P7021M6852
2642b19337m9425p8363l3087J1465M0921R4178a07193b3151h377E58Q1276J14509
2630A96343P7482K9317j4992j8244R33j047K1530R6803J53455J38762J1560j46391
2618E45511j86295j14817k9833M7058J27545J34875R8457J05157J02125M2347
2608H72130j9421n4135r5390j62471k31367A08160n0310P9618O8762l3217C6301
2596a47594j64632j34086q7033k2216L5901J04983J72149i4218K5884j37338k53081
2585d58753k11078q3896j314N2883J20812J61761J05094j6457j09595j23315p7123
2574f40981j8711M3263Q3701R2921Q6437Q0508Q7231N7889j1111p8314j04177
2563c21344l8553P7145J29508f5780J4456k3243l0732l2302l5330m2635n1904
2552b67470l9514n48J9362j1887p1829r8998n7949J9788P3644L6206l1147j9788
2540d50130P2253J61607d2781D9510j2329d9169r7835l4667O8584A67O5476l04
2528F5339b274j41382j67968j35587p7643k0922L2091R9399J87628D1299K88367
2517C29666K13482Q0318m0513r5007r5321j12054j35684D2532j2515N6468Q5132
2506A71617R7246R0077Q0482Q2599N1807k7127q8724q9033n1582j7793j2663l7061
2494B49845n6269m4712o4991c2957j33019r5760m8343k4018k1794K0744P4596
2483b60551L3668m2718q3625j28061j66218j61848j03586k7874M2328P0002O1189
2472g67294O9836J26534J73248J63436R8612j634n5935l3308J1761P1978F633
2460A87737J43062P9568J3200p1841r6581l5275k7138G4499a10103j28400K8031
2449b10472b1460B30643J71481R195j21848A20069a5019o6731k9323o1276j07823
2438b80172j13562p2335p209K8319L3196K1606L5646O2807M4442L1950L2964L1021
2426a51327J7021k7664n0147l172O1140O7930K3260J0019a1846C3364J5207k3076
2414B5495c7918r0113p7032j4363M0583K9971o129q39K8056K2111K1385b8896
2401H3787J86229K22490J96022Q3285o8302j45256j39796j22535p3406k3963k1458
2390A77097p6362f0319k34847k39056j17276Q1234K38896f4656I1977O616D2085
2378D3908R0160R6077M4093J3564K816l075k0273l3523k561N5025N3776M403M973
2365C49363O1430J05706P4412p076p1299p4688m3923l5162m2414o5546o0904K5881
2353B15780J11186J17477J11681J28892J08942K5659j09840k20925k21416A26523
2342F4825k3543j6043f139m1011J2939H6386J82926J59743O7728n8789j26314
2331C11680j17479p8388D8157c3352n7593l814R298o105k1300k6125k7505j5258
2319a81754P167k703l1907l8587m6124o1202l5584M1393R1256R8318e0193C3999
2306D4802d2250j69590j89548j75082j54423j48625j32812o0352M9720J59235
2296h63727J89967J01410j3815n3560k6946M3268J00963P1386l1441j10330j20618
2285g13443r2672r1925j01647q3968m1129K8103J16741J83172J79659J52267J48030
2274c16812J21438N3270l8738j09218j31780j04451l4188J9280N6063J18302J81328
2263a85506A0045J76496J93109K04108J08499p3641k00491k03770E8300f0396
2252a63278p3140K551N6157N6583J8196n0806j04564j17310p9600j0262P3176
2241c92297J59383c4391A23765R8524Q9214Q9128L3248o0888j23571A19743a8789
2229a66676j19146o6093m9339o5588p4858o0291j9217N298J7331M7193P4526O9974
2217d06886N1899K9666P685k62L5570J18395B3271K11351J85536J03633L3663
2206E57454N8028J06893P8471O918l8737o8110p1880p833N8138Q8325R1771K2288
2194H81726p6227j09612o0156j0791R752M7589Q0600O5677k2079j76088k63352
2183C67039A75726p167J23340J16890O2628K7632j6300j29641A20787h6064q5005
2172a71069J8996M4816M3277b3871m0314j25686q2858N6547g9229f623j1492j0472
2160b8587i333A7181M4430Q6269J11770P6952J1899m8441q9084j01318C9231J7594
2148E6825J19460J54836J01046J8915n8836q0808l7958J555j6404m5509m4828
2137A68294l1217k299n156D1597a22305j40051O142g2616A84484J87697N6086
2126D28267l0658o6736q6671l5876Q6612J51083Q6211l9249q2243q986M8215K9510
2114D79479k9565q0638j16406I8648d1001p5809p758e3916F6221J02934K4451
2103A93606n7796E1623b2566o4340q4288j11717j02358k0821Q2201J07410O8867
2092a47612L7734k3003j30698j96536j63873l6779R7947J44787J09226P5388Q3173
2081a50246O7764r30j6198J7235j5596m6192m4536m3795L0455f2684A34631K02621
2069C37252J47003N1765j9713m2043k8334k8517o3829q5302q6849H1742c2804
2057a49686q2171m3081q2002j09412m2476P714J9541M3854L9374L0740K8962L4268
2045c04375P1908a05640C8681O5427n0168e0529n4842M3270E855g440j14417j46512
2033b68369j10233n0435q639P822K0066O0501P8661L7036j9453l3188p052M6349
2021b46934P4479L3459j3509k2741J4268O7491d1545l9152j23009j26719n2688
2010c83113K9972J0233o2423p5964m5950n4734p1761j5921P9257J25249J28599
1999c36556J36302i1059J4924m4223K340b2780A37866J99000J93521J29912L7880
1988F98179o9811j59785k01797H1374a7713A4645J36719J47163Q0068L6460N9726
1977D74781P9313P4265N2426p309m8148k4545L2984O2287J3984o5640j03712p4148
1965D66538m2290j6000K7510K0946l2891m8266j4742M1193J04479J00527M451
1954F11455p4145o9182k3331L651J1433J3504K1305K4584r980p1568j06274r3617
1942B37835m9534n4226D4318b3341A2674J32360J57375J20990L6843n3902j66905
1931B39435g867k23929j80064j29207k2523R2469J36253J21488P8515k21m3442
1920a78528J5597P4912c2021J616k16F0122J51085J09763L1491k318M4130Q6996
1908D81269J5006j07320j65058H1349E272P217J05652J64226J61921J33427O0353
1897F38068k4684m3079l9588p9200j15706j18402A03874c0834j58218j49406r8503
1886d36961o3871l5436M3662J20176J08181J7551n9535j02706r2759m3078M799
1875e39977N7835R6204R5382P6222O3591L2020k6021o9167k0235R6992B9331J29953
1863A59284K8658l6443l3785n160L2926P4820R7137J02037J04636J04801R8111
1852G27022Q8693M7906l2192j17343j81446j90491j35483r6289C2247b3531A569
1840A36364J78083J74935J05912j6318r8941j31101j56605C0578h5389l4655M4614
1829g5430f087D1512M672c1893j55672j76975j17855j8090M1569N4762O7456R9850
1817b36848a06512b8061m7951j14630q5839m9851q420M6431N9795J9553m9545
1806b58518q8779q5352n1005p886k6765p5817p9712j3639M3825L7795L91k5351
1794f30813J444N1317O1878J3743m1435n7367l2464m455m369K399O2595J29387
1782d48140J57326J23417L0306l5819l0118L77L4391O2332K8092q0478j76482
1771c34796k09374k22469j67396j8160J09754J92513K45288a48250E8302J14988
1761A73290K6580k0530J2221P9720M6834n7794p7224j9424K546n368L0615Q5478
1749B76944J05549J10559J06949N9770j3283p2181r4367n5323J4784L8691o662
1738D71430p1850j39423H2128c4374J520D4725M7990D5468h0526j62136j47517
1727c90179q7302m132P1716Q1083J6192k1861J4138Q6496a14625N4675n1995o4214
1715a76159j656O7964e87I5431N4341J9421K3932O6588J01717P2385l579q2656
1703C47580q4448m504K0413J2599M3736M8454k7071r1901j24409b826j53754j63790
1691c20370j69014j53955q9861L6938J72538b47529G7795K42014P4788o2688j22919
1680B08990H9601H565b7692k0524l1854l0804J1547a5277A16105J36350J25411
1669C77866R1854J4841p7572j67756b234k46947j98775j28936k9525Q4591J61960
1658c59866a69020c4780f285l2390l4443m4850q3130j22187j50826q0928Q5733
1647d69306K07892d6624A09867J08741J11927J09926P9015N1970Q322m6516r8483
1636D34769j33208j13867q0634B4382f7062p4754l9105j7862L2298e9108E6983
1624A19516p625A9595h6053l5880M4846B7935J20545J01978N5166L5578P0743
1613D11945Q6078L091j20153j88060C1582c0344A0273R4926J18925J12150J28420
1602D64694J47324Q0956o3279j48239j22782l0344O9861J14786P0128m8253j43216
1591C91636j25992j8093Q2052J06387M9742n7187j40175A41966C2041a1265A7567
1579H0255M6671J6227j9997m3461C7958a6635k1350A4094P7952O4433P3403P9311
1567C09193K7962k2574l0432m5156p3715G1485d1774j25256j02015o3238n7683
1556c89966r0314r5080k665J57531a55015A11351J91550O0413q5071A00835h8856
1544b78236j97981j55409p3632j8977J6317P7070J59240K27614a0240A67776Q9634
1533B57410Q467k6399j7918J3770N5731J23808J99893J97334J04887P396m8169
1522H76210q2565j28180j51164r4654n7041o9372q1886A03175c4924j11395l3454
1511a79773K7267O9264A2138K2933g1976j63260j11831k0749P6820a23269D6692
1499A29310O285m2482A4343e9811k8658P702j1789m8428l3261O394g9072A14609
1486C39259J61736N3813k9693p3856j23921j60981E9668K821K5171n732J5649
1475I7577O6503R0048Q2687N5183N3837R6628R3533K8521l7080q0677j05265p0588
1463C70907k8494j6909l1392p8568H6472c8546m6334d1735C9507P3005O8132P0019
1451B50663L8948k489K4207Q0199P3349j9180j07688j10208j02051a3124j48553
1440a61677r2348J6674R7402f5102K0066a28A27233J67700J13920J5778j3023
1429D11608K3504K5674j7618n6375o2925l4482J9570K7417m8612j33834A5003
1417f6086m4655o0648q7603r4465q4688l3150J7201M271j1795M8700J42033d3746
1404A83784J30066M9270J0674J321L3831O3472M597j04724j38656q1527L0718
1393A82826J27583J32313O2135n7427j63761j37767l2435l6042a25729l50390
1383d76119k60690j8852J22871J15543L2370r465K8892P7927R6183J39073F1178
1371B75687J26428J5458r6334A49388c9079j53815o5190J6719L4198K4067L3681
1360a49419O1036M3639m4891j20775j14829m9985k322q854J0438N0260O4723M4074
1348b16905o3522j74920j55635o2149p316P972K1403O1023R1273Q4082N1415q638
1336c71917n6136n5114n891O4060R4091O3966L9829J04975F8827J72031N2154
1325B93012k0676K8837O8555L3654J6529O616k448J9040J1062q7767A73170a8373
1312a09343M6285I3601J91439J67386J23331O8018J0793k6925n0464j6408M5192
1301F05963K4103o8164j54582j93087D8174f2993n8600q099K8064L3775N566L060
1289e9227b153H1434L8496l3707B8646a507K99E0915O4557k580m9025j8679Q885
1276E4073j8596F17K7725J17329J26370M3473n0788j01033F9688a0352q1833r6414
1264a88599j28390j66970j51318n7673M1069R0147J09217J10983J16603i8130
1253A767J6135e0387q9747l3987J4075J711k2468Q009P0177a9747B4055L3666
1241E7721N9949N9477L2799L7186O0756M0192r513l3496l9307n047N4906P4450
1229C90073N8728P943p3193j06398q6768H5338g9646j49256n8363J6641J6020
1218b54604k3537l6067k7893m1924m6564n1948p6858r4824q3302j8843N1397R7084
1206f07883J15889R9886P1868O7150Q9007c2645A46555J80255J59258J40914J11110
1195G38092N7069l8714j15500j20517l8591P2735J25004R5992J7785n3707j03235
1184F36413r0539l3711k4967m8369k3462M5378Q2524O6035M5617m963j15183k12552
1172C22221A25772C1468A5575J4096J8836l290D893a8400E0805J59786J51721
1161C62312J1540j50395g607k16583j49186o4646J9525J08536a41091c417E1790
1149F9921K8219q521b2150j60604j15255m8658l4102n3024k7656k225j6403j8034
1137d98111j6015j8128j0886j1438j1290J0769Q4707J66526a17063E5912J48294
1126B04206J08404O1693L2022J2053J4023P9949J32875J05609P6866O3002o252
1115H84450q2839m7394r39N53K1614M1267M2241L0097j6076p0927q8133j16115
1103E97799j55299j46792p5216j831j2189n5858l3733J4926K7738L1354M6605
1092B37504O2012P7484Q8143M2351n1806r7149q8309p7479o1757m1769l028M6361
1080A32558M1179O703P006J8864J4029o190M29N8010R3122O8848N0702Q5894J41304
1067G12458J73742J45725P4839O3482J16073J42204R7484k2594j67103k11677
1057A124633j59788j22215j31505j13035j4089J06928J43625R7750L9763k6998
1047I45069q8230q3283n1491m5363n4122p3605j01819q5044k5015k4636j28221
1036A84240b3704j32328j2983N487j1636M899P2557A933e739j45537k37308k66110
1024f54694j67623q532J06776J80746K00090J45149O2607Q740J4231K3300l2404
1013a21614r3043r3223p8969n9093j7867k8999n8484o255O1664R3980R6106P2767
1001b33030N8646O1472b8896A03087J44777N7428n7173j14155B2062h6203j41113
990b27316j36187m2227Q4792J18234P2437e3935A02986K05831J49049O3400M8807
979E70073P5000N8280q964n3930n9012o6076q6430j21004A33598e9686j28334
968a88020j4228P0794c5155F7882J00222N9625k1807r7081A6720I40P7107R7370
956A75417N3438L283o2164F7775a367k0653d303C1625L01a3802l4325K747o775
943e2155k8935l7923m3168J2074P3076b3037N562j7860o5579j69823k54144k27884
931g52765p2043J15949J75062Q5231J840p165l073l7777q7500j12858r0796k8752
919h14647N8626J33366J76435J48749N8710K6053J05049A09870J97679N8016n0303
908C15262r5920j01501D1380C780c0612m9991l8642j1772l157l9399n9243j0323
896b43139N4801O6280L0337m814j3576j7183m9019q0002o4772l5758l0687k1436
884d08968L0798P3045P6707M5474k6861q9776r4596k3106J18154d9626B19527
872D03053Q2759L4051L722l4716n7757q9939j40620C3804g3570k0871j2682l7379
860a44502k7036k25J5324N3222C2009J87229J60761Q1813j2176q7758j28155G9983
847g5595p4947K4447N7188K8566k496l0623k9791K7187g455D6322J9000K2157
835H7479M4080M0376L4218J9620l0298q0813B4770e8116r4757j11997p3397J3081
823c25186R8384a08254L3048q6502j52744j59952j32816q7259l5981R837N1754
812f68869J00048J38069J78295a8860A69461P2861J7068o290k9451l4961n4395
801A34293C2827g6947p9381n1550o3486j00197q7214L343R3089J01820J00244
790a60279b7628A28731R8679q432p8104n1163J8743O3398P9354O9335O0536O4856
778D45933M7445J3171j1314l533j1432m3375m9772k4057J028K8802Q1503J55925
766F30324J83145J19770J7306r0044j94508k49843A70910b6215j58739j16105
756c01059m8470k903M8907R4590P1998l3213j10501o7926J9194O8295M8986k7521
744b39623p7675n6782q472M6028J02735h6865E2276O5649J5950K7303P2580Q7494
732C21252K2923n9771r2087q5702C0136d2346q0701o6185L003L5338J9721K1076
720a10094K7650c1591D8529J00973R7340M6756K6472P7184J25778J00232M5717
709F68981k6687q1926r6063j63889D8862a83848j06729K0101R6062c3826A13238
697B56132J32052Q1972Q116l9262m5511m3957k9299l845Q170K9900N4289J8631
685D27388q7446j49900G2142C3512L5943P1361O9436O4989M3445j7223p2746r3930
673A34787B1177a32739j58086j05494j1431Q9935J56824C3169K23523K03792J12758
662E73242m2196j51553j36217p561J13659J06126N0352J4025k6787n2960m4118
651C96012n586P0122R6118j3842j53543j65301r0996n4652H654e9905l3207K0483
639g2629a9915E0571Q1472O3759O1696R6169J03146L6978L945P5378J33736Q2462
627G89312J1266k377k4266o6443p0783r6975j76065A65637C4604h32H230b1549
614a35302j64904j26586o5421J5740J10893J53981h3886c1098k2592m9486n9021
603a62197q6490p9579q424N6522O4467O3654f1957C4862L5172A2605h3709p8426
591a62135o8695r1971q9337j0344O0432M6460j4271k8130j2232k2843p0803j17671
579e81540q0595L3429J34261J92024a07098E3050J16915J00731Q7403M7605J0933
568D16637p579k5545j8346J6480k543r4083A24392a1110o6460l0416J1895b0222
555F9668L0954D8502d0468n3633l3126n0320j5668R6200A03045K00105Q5692o7345
543C21497A57023h298j06480k4061K7203J6622k1191k9264l7644m6899l2554o696
531b69262J0220J8173L4359M9071M0865K0974j4751r0517j42686j11292m466J05635
519c53677J29599O8720k1244r8460j34133j32995j48431j35290j7682J15768J32511
508e95314Q5110O4385O6211O2199R6795g8808B7111K9972B6133d1660l8008J3940
496f5728i443A11951J69564J00802m2276j20348I9727d716p9533M027B2636J20670
484A43306P9594K5942k2737k6424j8536l4421o3247A3721b2560J488C580P229
472A0809a2580m0899m6566m7736m4929k4899J3342M0572P884o9000j03647l8903
460c67361N6376J09046R8843e0595a7962C6681R0791J08643Q9926M5750n077m3479
448C23235o1864l9237J8179K1772p9666B0096a28669q1055N00L2922J4193l4822
436a96931n7850j4572L3776L7522K7825K542l4936q739Q5696B4211J03321J3665
424A41197n4067A3711b2408h505D1393Q7196Q9081K5953l5788o0484p2164B0966
411b050k3977n5213q7691q5428j8306O5946h9879D5138J28932Q1905m254p1564
399A80157m7800M1660P6431L2325k3609q3172C4142a31479j57825j39500j01557
388e30361l9464L4986P8611Q4879J17040a10096e628A4570C682J4100N2607J26485
376A96874J81971J46209M7160l2811o6559l7501L0272O5358M4697K6261j9088
365E82843r6803j16387o4369j0892m532k3280l4668p3947C2360h8352o5330j1906
353a65588R604P257J4224M9579I079R0905L9565K6385M7834M2929K835n5534n4446
340A49552k6648k9686l9345B0245K9213Q0416K9940l4115k3047j5598C2558e4245
327a46925p6865m2526m565J2012P678J0994P425l2329o4986p8822o2296j8357
315d89562L5238Q8654J07409J00562P6069L4661o035k5790L037K3037j7103o2673
303a32496m7863Q218M8681e1890E9103J42658J40757J10609N6721k581n2044n2831
291D02392j6109K157l1462p9144j01254G5110b2184r2572m0657L8601d5778D760
278D7571P3788P8952K8793l6300n6046n8381a3966j20650j16303o6078J1550P3798
266b31649J05309e7062l926l9809k0843K8906c5528E767K6202L4487N1585O0155
254A78196O7063L2468j4705k1198l3874p5987C1136d2025k0034K7189A0825J1300
242B2125b6761j01437j09823o7426o406J6320o354l2906n1509l7748K3597P2799
230c27654O4097K4982j1283q373N8412i4540c081F2845N7134M3046j5202n0785
218I7038j348P0338Q6631O9394L5055n5878j17316q1218k475N6455O7330K4601
206B48607l3628l0420K7735N9966K3503m0013r1278D3940g4769j00948p8780o0683
194c15180l1844K2665Q8755a16544f91G9604L0083L657k0050m2571A2587l757
182H830L2794M2222M680B1959i3630j11007p5222l2052K3557Q4046Q4881J5857
170a03570k8809l3632l9860m6585l5855q36J7672R263k564j9748k5197r149J578
157c17292J597J0801K8490K4507J0100K2188N7255g2052C6959J16063P8703j7820
145B13905q2530F4988k2073J7296L8097J437C3453g5967j11855r7406q5045n6778
133d27051j6006O735L4857K4959l3907n9246m3373j5148J7246K6630J4828l022
121d72498L353L0989K6457k8993o8093n9255k6133L4121R3786J28952J22900R7451
109a16963e6343K1668N309o17R46a31F8612O5599j77o6416b524A842Q8902R5272
95A86016L8935m66j9307m1518o7042m6658p315A0790f0144n4219l682K7806L8823
82e1416A3584R7338J13404J11678M6849m3248p3208n8618p7739F870a06980n7537
70a64517M529N7807b182H4216J7791D9940b4968m6347q909J4766J4866j4515m3737
57a08844n0443m5518o4374r7636n1559L3268P4223J10747g3670a0378k5121p5431
45a10930q7167j04665r6360m0688L2673J13607a41806c3556J2290o6824j00603
34a88693p5780k2659L2126P7170Q8622b8232J3355l8294r0143j22640j28242q1665
22d75861R078Q1280Q0392K2234j9637q333L5107N2682J8315k5769m2889o4428
10c37829q6419p7225m2416j0827K4817P6025J06424J12982J00764O1141
0g2563
##END=
